Version 4
SHEET 1 1240 792
WIRE 608 -48 80 -48
WIRE 768 -48 608 -48
WIRE 1056 -48 768 -48
WIRE 1120 -48 1056 -48
WIRE 608 -32 608 -48
WIRE 1056 -32 1056 -48
WIRE 80 -16 80 -48
WIRE 304 48 192 48
WIRE 464 48 304 48
WIRE 192 64 192 48
WIRE 304 64 304 48
WIRE 464 64 464 48
WIRE 80 80 80 64
WIRE 1120 80 1120 -48
WIRE 608 96 608 48
WIRE 688 96 608 96
WIRE 880 96 688 96
WIRE 896 96 880 96
WIRE 992 96 976 96
WIRE 1024 96 992 96
WIRE 1088 96 1024 96
WIRE 608 112 608 96
WIRE 768 112 768 -48
WIRE 992 112 992 96
WIRE 1168 112 1152 112
WIRE 1056 128 1056 48
WIRE 1088 128 1056 128
WIRE 880 144 880 96
WIRE 464 160 464 144
WIRE 496 160 464 160
WIRE 544 160 496 160
WIRE 848 160 832 160
WIRE 992 208 992 176
WIRE 992 208 928 208
WIRE 1056 208 1056 128
WIRE 608 224 608 208
WIRE 688 224 608 224
WIRE 768 224 768 208
WIRE 768 224 688 224
WIRE 880 224 880 208
WIRE 992 224 992 208
WIRE -32 240 -320 240
WIRE 96 240 48 240
WIRE 928 240 928 208
WIRE -320 256 -320 240
WIRE 304 256 304 144
WIRE 352 256 304 256
WIRE 848 256 848 160
WIRE 848 256 352 256
WIRE 304 288 304 256
WIRE 464 288 464 160
WIRE -176 304 -240 304
WIRE 1056 304 1056 288
WIRE -16 336 -32 336
WIRE 0 336 -16 336
WIRE 96 336 96 240
WIRE 96 336 80 336
WIRE 192 336 160 336
WIRE 224 336 192 336
WIRE 240 336 224 336
WIRE 576 336 528 336
WIRE 736 336 576 336
WIRE 864 336 816 336
WIRE 928 336 928 320
WIRE 928 336 864 336
WIRE 992 336 992 288
WIRE 992 336 928 336
WIRE 1168 336 1168 112
WIRE 1168 336 992 336
WIRE -320 352 -320 336
WIRE 192 352 192 336
WIRE 576 352 576 336
WIRE 864 352 864 336
WIRE -208 368 -224 368
WIRE -176 368 -208 368
WIRE -240 400 -240 304
WIRE -176 400 -240 400
WIRE 304 400 304 384
WIRE 384 400 304 400
WIRE 464 400 464 384
WIRE 464 400 384 400
WIRE -240 432 -240 400
WIRE 384 432 384 400
WIRE 688 432 688 224
WIRE 192 448 192 432
WIRE 576 448 576 432
WIRE 864 448 864 432
WIRE 912 448 864 448
WIRE 1008 448 992 448
WIRE 1056 448 1008 448
WIRE 1088 448 1056 448
WIRE 864 464 864 448
WIRE 1008 464 1008 448
WIRE 496 480 448 480
WIRE 624 480 496 480
WIRE -128 528 -240 528
WIRE 0 528 -32 528
WIRE 496 528 496 480
WIRE -240 544 -240 528
WIRE -128 544 -128 528
WIRE 0 544 0 528
WIRE 384 544 384 528
WIRE 688 544 688 528
WIRE 864 544 864 528
WIRE 1008 544 1008 528
WIRE -240 640 -240 624
WIRE -128 640 -128 624
WIRE 0 640 0 624
WIRE 384 640 384 624
WIRE 496 640 496 608
WIRE 496 640 384 640
WIRE 688 640 688 624
WIRE 688 640 496 640
WIRE 1120 640 1120 144
WIRE 1120 640 688 640
WIRE 688 672 688 640
WIRE 688 768 688 752
FLAG 0 640 0
FLAG -240 432 0
FLAG 80 80 0
FLAG -16 336 IF
FLAG 192 448 0
FLAG 576 448 0
FLAG 688 768 0
FLAG 352 256 Q1C
FLAG 496 160 Q2C
FLAG 1024 96 U1M
FLAG 1056 304 0
FLAG 880 224 0
FLAG 576 336 Q2B
FLAG 1056 448 Audio
FLAG 224 336 Q1B
FLAG 688 96 Q3C
FLAG 192 144 0
FLAG 864 544 0
FLAG 1008 544 0
FLAG 384 400 Q2E
FLAG -240 640 0
FLAG -128 640 0
FLAG -208 368 Mod
FLAG 0 528 Mod
FLAG 864 336 U1O
FLAG -320 352 0
SYMBOL SpecialFunctions\\modulate -176 304 R0
WINDOW 39 13 41 Left 0
WINDOW 40 14 88 Left 0
WINDOW 3 16 -20 Left 0
WINDOW 123 14 21 Left 0
SYMATTR SpiceLine mark=455k
SYMATTR SpiceLine2 space=455k
SYMATTR Value Rout=220
SYMATTR Value2 Vhigh=0.5
SYMATTR InstName A1
SYMBOL voltage 0 528 R0
WINDOW 123 0 0 Left 0
WINDOW 39 0 0 Left 0
WINDOW 0 38 58 Left 0
WINDOW 3 30 93 Left 0
SYMATTR InstName Sin
SYMATTR Value SINE(0 {moddepth} 1000)
SYMBOL voltage 80 -32 R0
WINDOW 123 0 0 Left 0
WINDOW 39 0 0 Left 0
SYMATTR InstName V2
SYMATTR Value 12V
SYMBOL NPN 240 288 R0
SYMATTR InstName Q1
SYMATTR Value 2N2369
SYMBOL NPN 528 288 M0
SYMATTR InstName Q2
SYMATTR Value 2N2369
SYMBOL NPN 544 112 R0
SYMATTR InstName Q3
SYMATTR Value 2N2369
SYMBOL NPN 832 112 M0
SYMATTR InstName Q4
SYMATTR Value 2N2369
SYMBOL cap 160 320 R90
WINDOW 0 0 32 VBottom 0
WINDOW 3 32 32 VTop 0
SYMATTR InstName C2
SYMATTR Value 10nf
SYMBOL res 176 336 R0
SYMATTR InstName R1
SYMATTR Value 1k
SYMBOL res 560 336 R0
SYMATTR InstName R2
SYMATTR Value 1k
SYMBOL voltage 688 768 R180
WINDOW 123 0 0 Left 0
WINDOW 39 0 0 Left 0
WINDOW 0 33 30 Left 0
WINDOW 3 36 72 Left 0
SYMATTR InstName V1
SYMATTR Value 6v
SYMBOL res 368 528 R0
SYMATTR InstName R3
SYMATTR Value 1k
SYMBOL res 448 48 R0
SYMATTR InstName R5
SYMATTR Value 170
SYMBOL res 288 48 R0
SYMATTR InstName R6
SYMATTR Value 170
SYMBOL res 592 -48 R0
SYMATTR InstName R8
SYMATTR Value 22k
SYMBOL res 1040 -48 R0
SYMATTR InstName R10
SYMATTR Value 1k
SYMBOL res 1040 192 R0
SYMATTR InstName R11
SYMATTR Value 3k
SYMBOL res 832 320 R90
WINDOW 0 0 56 VBottom 0
WINDOW 3 32 56 VTop 0
SYMATTR InstName R12
SYMATTR Value 2k
SYMBOL cap 864 144 R0
SYMATTR InstName C3
SYMATTR Value 750p
SYMBOL cap 976 112 R0
SYMATTR InstName C4
SYMATTR Value 1nf
SYMBOL res 992 80 R90
WINDOW 0 0 56 VBottom 0
WINDOW 3 32 56 VTop 0
SYMATTR InstName R7
SYMATTR Value 47k
SYMBOL NPN 448 432 M0
SYMATTR InstName Q5
SYMATTR Value 2N2369
SYMBOL NPN 624 432 R0
SYMATTR InstName Q6
SYMATTR Value 2N2369
SYMBOL res 672 528 R0
SYMATTR InstName R4
SYMATTR Value 270
SYMBOL voltage 496 512 R0
WINDOW 123 0 0 Left 0
WINDOW 39 0 0 Left 0
WINDOW 0 33 30 Left 0
WINDOW 3 36 72 Left 0
SYMATTR InstName V3
SYMATTR Value 3.7V
SYMBOL voltage 192 48 R0
WINDOW 123 0 0 Left 0
WINDOW 39 0 0 Left 0
WINDOW 0 33 30 Left 0
WINDOW 3 36 72 Left 0
SYMATTR InstName V4
SYMATTR Value 6V
SYMBOL res 848 336 R0
SYMATTR InstName R9
SYMATTR Value 5k
SYMBOL cap 848 464 R0
SYMATTR InstName C5
SYMATTR Value 1n
SYMBOL res 1008 432 R90
WINDOW 0 0 56 VBottom 0
WINDOW 3 32 56 VTop 0
SYMATTR InstName R13
SYMATTR Value 5k
SYMBOL cap 992 464 R0
SYMATTR InstName C6
SYMATTR Value 1n
SYMBOL VOLTAGE -240 528 R0
WINDOW 0 38 54 Left 0
WINDOW 3 -3 161 Left 0
WINDOW 123 0 0 Left 0
WINDOW 39 0 0 Left 0
SYMATTR InstName Pul
SYMATTR Value PULSE(50m 1.5v 150u 1u 10u 250u 500u)
SYMBOL res -144 528 R0
SYMATTR InstName R14
SYMATTR Value 1k
SYMBOL cap 976 224 R0
SYMATTR InstName C1
SYMATTR Value 100p
SYMBOL res 912 224 R0
WINDOW 0 23 7 Left 0
SYMATTR InstName R15
SYMATTR Value 3k
SYMBOL VOLTAGE -320 240 R0
WINDOW 123 0 0 Left 0
WINDOW 39 0 0 Left 0
WINDOW 3 -3 -16 Left 0
SYMATTR Value SINE(0 3 455e3)
SYMATTR InstName V5
SYMBOL res 96 320 R90
WINDOW 0 0 56 VBottom 0
WINDOW 3 32 56 VTop 0
SYMATTR InstName R16
SYMATTR Value 1k
SYMBOL res 64 224 R90
WINDOW 0 0 56 VBottom 0
WINDOW 3 32 56 VTop 0
SYMATTR InstName R17
SYMATTR Value 1k
SYMBOL Robertugo\\OPAMP5 1120 48 R0
WINDOW 38 -63 120 Left 0
SYMATTR InstName U2
SYMATTR SpiceModel level2
TEXT -320 -40 Left 0 !.fourier 1k V(Audio)
TEXT -320 -64 Left 0 !.tran 0 1.5m 100u 50n
TEXT -320 -16 Left 0 !.options plotwinsize=0
TEXT 120 -104 Left 0 ;'CDC DSB/Exalted Carrier Detector TDH 0.016786%\nRef: US Patent 4,603,299
TEXT -320 8 Left 0 ;Simulated DSB-AM \nsignal at 455kHz IF
TEXT -320 64 Left 0 ;DC Offset: \n-1V for DSB AM with carrier\n-0V for DSB AM suppressed carrier\nAmplitude(V)=%modulation/100
TEXT -320 184 Left 0 !.param moddepth=0.95 ; modulation depth 1 = 100%
TEXT 856 672 Left 0 !.IC V(U1M)=9v
TEXT 856 704 Left 0 !.IC V(U1O)=0v
TEXT 856 736 Left 0 !.IC V(Q3C)=9v
TEXT -256 480 Left 0 ;Move "Mod" Label for Pulse or Sine modulation
