Version 4
SHEET 1 1188 724
WIRE 288 -192 48 -192
WIRE 352 -192 288 -192
WIRE 464 -192 432 -192
WIRE 496 -192 464 -192
WIRE 768 -192 576 -192
WIRE 832 -192 768 -192
WIRE 464 -112 464 -192
WIRE 464 0 464 -32
WIRE -144 96 -512 96
WIRE -112 96 -144 96
WIRE 80 96 -16 96
WIRE 240 96 80 96
WIRE 368 96 240 96
WIRE 432 96 368 96
WIRE 560 96 512 96
WIRE 688 96 560 96
WIRE 848 96 688 96
WIRE 1008 96 944 96
WIRE 1056 96 1008 96
WIRE -272 160 -304 160
WIRE -112 160 -272 160
WIRE 48 160 48 -192
WIRE 48 160 -16 160
WIRE 368 160 368 96
WIRE 560 160 560 96
WIRE 832 160 832 -192
WIRE 848 160 832 160
WIRE 976 160 944 160
WIRE -176 208 -304 208
WIRE -112 208 -176 208
WIRE 80 208 80 96
WIRE 80 208 -16 208
WIRE -400 272 -432 272
WIRE -144 272 -144 96
WIRE -112 272 -144 272
WIRE 48 272 48 160
WIRE 48 272 -16 272
WIRE -272 304 -272 160
WIRE 368 304 368 240
WIRE 560 304 560 240
WIRE -432 320 -432 272
WIRE -320 320 -432 320
WIRE 224 320 128 320
WIRE 48 336 48 272
WIRE 832 336 832 160
WIRE -512 352 -512 96
WIRE -432 352 -432 320
WIRE 176 352 96 352
WIRE 224 352 176 352
WIRE 368 352 368 304
WIRE 368 352 352 352
WIRE 560 352 560 304
WIRE 576 352 560 352
WIRE 752 352 704 352
WIRE 784 352 752 352
WIRE 1008 352 1008 96
WIRE -176 368 -176 208
WIRE 128 400 96 400
WIRE 784 400 752 400
WIRE -512 464 -512 432
WIRE -432 464 -432 432
WIRE -432 464 -512 464
WIRE -320 464 -320 368
WIRE -320 464 -432 464
WIRE -272 464 -272 384
WIRE -272 464 -320 464
WIRE -176 464 -176 432
WIRE -176 464 -272 464
WIRE 48 464 48 416
WIRE 48 464 -176 464
WIRE 128 464 128 400
WIRE 128 464 48 464
WIRE 752 464 752 400
WIRE 752 464 128 464
WIRE 832 464 832 416
WIRE 832 464 752 464
WIRE 976 464 976 160
WIRE 976 464 832 464
WIRE 1008 464 1008 432
WIRE 1008 464 976 464
WIRE -512 496 -512 464
FLAG -512 496 0
FLAG 1056 96 VSEC
IOPIN 1056 96 Out
FLAG -304 160 VPRI
IOPIN -304 160 Out
FLAG -304 208 VCLMP
IOPIN -304 208 Out
FLAG -400 272 VDRV
IOPIN -400 272 Out
FLAG 288 -192 DBp
IOPIN 288 -192 In
FLAG 768 -192 DBs
IOPIN 768 -192 In
FLAG 128 320 BP
IOPIN 128 320 Out
FLAG 464 0 0
FLAG 464 -192 DBc
IOPIN 464 -192 In
FLAG 176 352 DBpu
IOPIN 176 352 In
FLAG 752 352 DBsu
IOPIN 752 352 In
FLAG 240 96 Hfpout
IOPIN 240 96 In
FLAG 688 96 Hfsout
IOPIN 688 96 In
FLAG 368 304 Hfpin
IOPIN 368 304 In
FLAG 560 304 Hfsin
IOPIN 560 304 In
SYMBOL core 624 352 M180
SYMATTR InstName CORES
SYMATTR SpiceLine UO=12.57E-7 UE=1500 AE=58E-6 LE=57E-3 BS=300E-3 LG=0
SYMBOL winding -80 128 R0
SYMATTR InstName PRIMARY
SYMATTR SpiceLine WA=17E-6 MLT=50E-3 WF=0.7 N=14 F=0
SYMBOL winding -80 240 R0
SYMATTR InstName CLAMP
SYMATTR SpiceLine WA=3.4E-6 MLT=50E-3 WF=0.7 N=14 F=0
SYMBOL winding 912 128 M0
SYMATTR InstName SECONDARY
SYMATTR SpiceLine WA=20.5E-6 MLT=50E-3 WF=0.7 N=3 F=0
SYMBOL res 992 336 R0
WINDOW 0 34 51 Left 0
SYMATTR InstName RB
SYMATTR Value 2R5
SYMBOL sw -272 400 M180
WINDOW 0 35 71 Left 0
WINDOW 3 34 46 Left 0
SYMATTR InstName M1
SYMATTR Value MSW
SYMBOL voltage -432 336 R0
WINDOW 0 -54 149 Left 0
WINDOW 3 -56 174 Left 0
WINDOW 123 0 0 Left 0
WINDOW 39 0 0 Left 0
SYMATTR InstName VDRV
SYMATTR Value PULSE(0 15 0 10n 10n 4u 10u)
SYMBOL diode -160 432 R180
WINDOW 0 -49 42 Left 0
WINDOW 3 -42 20 Left 0
SYMATTR InstName DCL
SYMATTR Value DID
SYMBOL voltage -512 336 R0
WINDOW 0 8 -35 Left 0
WINDOW 3 10 -9 Left 0
WINDOW 123 0 0 Left 0
WINDOW 39 0 0 Left 0
SYMATTR InstName VBUS
SYMATTR Value 48V
SYMBOL core 304 352 R180
SYMATTR InstName COREP
SYMATTR SpiceLine UO=12.57E-7 UE=1500 AE=58E-6 LE=57E-3 BS=300E-3 LG=0
SYMBOL res 528 80 R90
WINDOW 0 0 56 VBottom 0
WINDOW 3 32 56 VTop 0
SYMATTR InstName R1
SYMATTR Value {1/coupling}
SYMBOL res 352 256 M180
WINDOW 0 36 76 Left 0
WINDOW 3 36 40 Left 0
SYMATTR InstName R2
SYMATTR Value {1/stray1}
SYMBOL res 544 256 M180
WINDOW 0 36 76 Left 0
WINDOW 3 36 40 Left 0
SYMATTR InstName R3
SYMATTR Value {1/stray2}
SYMBOL res 448 -16 M180
WINDOW 0 36 76 Left 0
WINDOW 3 36 40 Left 0
SYMATTR InstName R11
SYMATTR Value {coupling}
SYMBOL res 448 -208 R90
WINDOW 0 0 56 VBottom 0
WINDOW 3 32 56 VTop 0
SYMATTR InstName R12
SYMATTR Value {stray1}
SYMBOL res 592 -208 R90
WINDOW 0 0 56 VBottom 0
WINDOW 3 32 56 VTop 0
SYMATTR InstName R13
SYMATTR Value {stray2}
SYMBOL e 48 320 M0
SYMATTR InstName E1
SYMATTR Value 1
SYMBOL e 832 320 R0
SYMATTR InstName E2
SYMATTR Value 1
TEXT -80 128 Left 0 ;PRI
TEXT -88 240 Left 0 ;CLP
TEXT 872 128 Left 0 ;SEC
TEXT -512 16 Left 0 !.MODEL MSW SW(RON=10m ROFF=1E6 VT=5)
TEXT -512 40 Left 0 !.MODEL DID D(RON=10m ROFF=1E6)
TEXT -512 64 Left 0 !.tran 0 100u 70u 100n
TEXT 248 384 Left 0 ;COREP
TEXT 680 384 Right 0 ;CORES
TEXT 368 528 Left 0 !.param coupling=99
TEXT 368 560 Left 0 !.param stray1=1
TEXT 368 592 Left 0 !.param stray2=1
TEXT 368 624 Left 0 !.param rr=10meg
