Version 4
SHEET 1 1172 680
WIRE -128 -576 -208 -576
WIRE -64 -576 -64 -624
WIRE -64 -576 -128 -576
WIRE -48 -576 -64 -576
WIRE 0 -576 -48 -576
WIRE -48 -528 -48 -576
WIRE -208 -512 -208 -576
WIRE -256 -496 -496 -496
WIRE -256 -448 -464 -448
WIRE -128 -416 -128 -576
WIRE -48 -416 -48 -448
WIRE -208 -352 -208 -432
WIRE -128 -352 -208 -352
WIRE -208 -304 -208 -352
WIRE -80 -304 -208 -304
WIRE 32 -304 -80 -304
WIRE 272 -304 112 -304
WIRE -768 -288 -928 -288
WIRE -496 -288 -496 -496
WIRE -496 -288 -624 -288
WIRE 464 -272 352 -272
WIRE 480 -272 464 -272
WIRE 608 -272 544 -272
WIRE 688 -272 608 -272
WIRE 832 -272 688 -272
WIRE 976 -272 832 -272
WIRE -768 -256 -768 -288
WIRE -464 -256 -464 -448
WIRE -464 -256 -528 -256
WIRE 272 -256 272 -304
WIRE -80 -240 -80 -304
WIRE 832 -240 832 -272
WIRE -464 -224 -624 -224
WIRE -928 -208 -928 -288
WIRE 976 -208 976 -272
WIRE -528 -192 -528 -256
WIRE -496 -192 -528 -192
WIRE -528 -160 -528 -192
WIRE 464 -160 464 -272
WIRE 480 -160 464 -160
WIRE 608 -160 608 -272
WIRE 608 -160 544 -160
WIRE 272 -128 272 -176
WIRE 272 -128 224 -128
WIRE -208 -96 -208 -304
WIRE -464 -80 -464 -224
WIRE -256 -80 -464 -80
WIRE 224 -64 224 -128
WIRE 352 -48 352 -192
WIRE 832 -48 832 -96
WIRE 832 -48 352 -48
WIRE 912 -48 832 -48
WIRE 976 -48 976 -128
WIRE 976 -48 912 -48
WIRE -496 -32 -496 -192
WIRE -256 -32 -496 -32
WIRE 352 64 352 -48
WIRE 496 64 448 64
WIRE 608 64 560 64
WIRE 608 112 608 64
WIRE 688 112 688 -272
WIRE 688 112 608 112
WIRE -208 128 -208 -16
WIRE -80 128 -80 -176
WIRE -80 128 -208 128
WIRE 224 128 224 0
WIRE 224 128 -80 128
WIRE 448 144 448 64
WIRE 448 144 352 144
WIRE -208 160 -208 128
WIRE 448 160 448 144
WIRE 496 160 448 160
WIRE 608 160 608 112
WIRE 608 160 560 160
FLAG 976 -272 VP
IOPIN 976 -272 Out
FLAG 912 -48 0
FLAG -528 -160 0
FLAG 0 -576 HT
FLAG -208 160 0
FLAG -48 -416 0
FLAG -928 -128 0
SYMBOL cap 816 -240 R0
WINDOW 0 36 19 Left 0
WINDOW 3 37 45 Left 0
SYMATTR InstName CF1
SYMATTR Value 840µ
SYMBOL res 816 -192 R0
WINDOW 0 36 43 Left 0
WINDOW 3 36 69 Left 0
SYMATTR InstName ESRCF1
SYMATTR Value 6m
SYMBOL res 960 -224 R0
SYMATTR InstName R1
SYMATTR Value 3.0
SYMBOL ind2 256 -160 M180
WINDOW 0 -30 53 Left 0
WINDOW 3 30 141 Left 0
SYMATTR InstName L2
SYMATTR Value 3.0mH
SYMATTR Type ind
SYMATTR SpiceLine Rser=10m
SYMBOL ind2 368 -176 R180
WINDOW 0 -33 71 Left 0
WINDOW 3 -55 43 Left 0
SYMATTR InstName L3
SYMATTR Value 100µ
SYMATTR Type ind
SYMATTR SpiceLine Rser=10m
SYMBOL schottky 480 -256 R270
WINDOW 0 32 32 VTop 0
WINDOW 3 -8 64 VBottom 0
SYMATTR InstName D1
SYMATTR Value MBR20100CT
SYMATTR Description Diode
SYMATTR Type diode
SYMBOL ind2 368 160 R180
WINDOW 0 -33 80 Left 0
WINDOW 3 -51 52 Left 0
SYMATTR InstName L5
SYMATTR Value 100µ
SYMATTR Type ind
SYMATTR SpiceLine Rser=10m
SYMBOL ind 16 -288 R270
WINDOW 0 32 56 VTop 0
WINDOW 3 5 56 VBottom 0
SYMATTR InstName L6
SYMATTR Value 10µ
SYMBOL sw -208 -416 M180
SYMATTR InstName S1
SYMATTR Value Sbreak
SYMBOL sw -208 0 M180
SYMATTR InstName S2
SYMATTR Value Sbreak
SYMBOL voltage -48 -544 R0
WINDOW 123 0 0 Left 0
WINDOW 39 0 0 Left 0
SYMATTR InstName V2
SYMATTR Value 350
SYMBOL diode -112 -352 R180
WINDOW 0 24 72 Left 0
WINDOW 3 24 0 Left 0
SYMATTR InstName D9
SYMATTR Value Dbreak
SYMBOL diode -64 -176 R180
WINDOW 0 24 72 Left 0
WINDOW 3 24 0 Left 0
SYMATTR InstName D10
SYMATTR Value Dbreak
SYMBOL VCO2 -704 -256 R0
SYMATTR SpiceLine fmin=100k fmax=200k DT=50n SS=10u
SYMATTR InstName U1
SYMBOL cap 208 -64 R0
SYMATTR InstName C1
SYMATTR Value .025µ
SYMBOL voltage -928 -224 R0
WINDOW 123 0 0 Left 0
WINDOW 39 0 0 Left 0
SYMATTR InstName V1
SYMATTR Value 200m
SYMBOL schottky 480 -144 R270
WINDOW 0 32 32 VTop 0
WINDOW 3 -8 64 VBottom 0
SYMATTR InstName D2
SYMATTR Value MBR20100CT
SYMATTR Description Diode
SYMATTR Type diode
SYMBOL schottky 496 80 R270
WINDOW 0 32 32 VTop 0
WINDOW 3 -8 64 VBottom 0
SYMATTR InstName D3
SYMATTR Value MBR20100CT
SYMATTR Description Diode
SYMATTR Type diode
SYMBOL schottky 496 176 R270
WINDOW 0 32 32 VTop 0
WINDOW 3 -8 64 VBottom 0
SYMATTR InstName D4
SYMATTR Value MBR20100CT
SYMATTR Description Diode
SYMATTR Type diode
TEXT 256 -392 Left 0 !K1 l2 l3 l5 1
TEXT 904 -352 Left 0 !.include application.lib
TEXT 912 -392 Left 0 !.tran 0 10m 1u uic
