.SUBCKT LM3886-2 InPos InNeg OUT Vpos Vneg MUTE GndPin

* G:\SwCADIII\lib\sym\EXTRA\AudioOpamp\NS\LM3886_MV2LT1363TRANSasc-1.asc
Q1 Vpos InNeg N023 0 2N3904
Q2 Vpos N003 N006 0 NPN
Q3 N010 GndPin N009 0 2N3904
Q4 Vpos N006 N013 0 NPN
Q5 N021 N032 N034 0 NPN
Q6 N028 N031 N033 0 NPN
Q7 N021 N029 N032 0 NPN
Q9 N026 N030 N035 0 BF720/SIE
Q10 N027 N030 N036 0 BF720/SIE
Q11 Vpos N026 N030 0 BF720/SIE
Q12 Vpos N027 N031 0 NPN
Q13 N015 N010 N007 0 2N3906
Q14 N016 N011 N007 0 2N3906
Q15 N026 N023 N022 0 BF721/SIE
Q16 N026 N020 N018 0 2N3906
Q18 N027 N019 N017 0 2N3906
R1 N015 N022 1k1
D1 N004 N010 D
D2 N001 N004 D
R2 Vpos N001 1k
R3 N009 N008 1k
D3 N008 P001 D
D4 P001 MUTE D
R4 N016 N017 4k7
R5 N016 N018 4k7
R6 N019 GndPin 10k
D5 N005 N011 D
D6 N002 N005 D
R7 Vpos N002 1k
Q19 N027 N025 N024 0 BF721/SIE
R8 N015 N024 1k1
R9 N035 Vneg 2k2
R10 N036 Vneg 2k2
R11 N033 Vneg 800
D7 N029 N033 D
R12 N034 Vneg 0.45
R13 N032 Vneg 150
R14 N006 N021 150
R15 N013 N021 0.45
D8 N003 N012 D
D9 N012 N014 D
D10 N014 N028 D
Q20 N029 N028 N021 0 PNP
R16 N021 N020 10k
C1 N021 N027 10pF
D11 N020 GndPin D
D12 GndPin N020 D
I1 N023 Vneg 0.5mA
I2 N025 Vneg 0.5mA
I3 N030 Vneg 10mA
I4 N031 Vneg 5mA
I5 N011 Vneg 1mA
Q17 Vpos InPos N025 0 2N3904
I6 Vpos N003 10mA
I7 Vpos N007 1mA
R19 OUT N021 0.0001
.model D D
*.lib G:\SwCADIII\lib\cmp\standard.dio
.model NPN NPN
.model PNP PNP
.lib G:\SwCADIII\lib\cmp\standard.bjt
*.backanno

.ends
