Version 4
SHEET 1 880 680
WIRE -48 48 -112 48
WIRE 128 48 -48 48
WIRE 240 48 224 48
WIRE 320 48 240 48
WIRE 384 48 320 48
WIRE -112 96 -112 48
WIRE -48 160 -48 48
WIRE 384 176 384 48
WIRE 176 192 176 112
WIRE -112 208 -112 176
WIRE 240 224 240 48
WIRE 256 224 240 224
WIRE -48 256 -48 240
WIRE -48 256 -112 256
WIRE -32 272 -48 256
WIRE 384 272 384 256
WIRE -112 288 -112 256
WIRE 320 288 320 48
WIRE 288 320 32 320
WIRE 176 336 176 272
WIRE -48 384 -32 368
WIRE 112 384 -48 384
WIRE -48 400 -48 384
WIRE 240 400 240 224
WIRE 176 464 176 432
WIRE 176 464 144 464
WIRE 144 480 144 464
WIRE -112 496 -112 352
WIRE -48 496 -48 480
WIRE -48 496 -112 496
WIRE 176 496 176 464
WIRE 176 496 -48 496
WIRE 240 496 240 464
WIRE 240 496 176 496
WIRE 320 496 320 352
WIRE 320 496 240 496
FLAG 144 480 0
FLAG -112 208 0
FLAG 384 272 0
FLAG 256 224 Out
IOPIN 256 224 Out
SYMBOL npn2 112 336 R0
WINDOW 0 20 49 Left 0
WINDOW 3 70 1 VRight 0
SYMATTR InstName Q2
SYMATTR Value BC547A
SYMBOL pnp2 224 112 M270
WINDOW 0 34 62 VLeft 0
WINDOW 3 47 186 VLeft 0
SYMATTR InstName Q3
SYMATTR Value TIP2955
SYMBOL pnp2 32 368 R180
WINDOW 0 20 47 Left 0
WINDOW 3 72 90 VLeft 0
SYMATTR InstName Q1
SYMATTR Value BC557A
SYMBOL res -64 144 R0
SYMATTR InstName R1
SYMATTR Value 1k
SYMBOL LED -128 288 R0
WINDOW 3 -19 -26 VRight 0
SYMATTR Value NSCW100
SYMATTR InstName D1
SYMATTR Description Diode
SYMATTR Type diode
SYMBOL res -64 384 R0
SYMATTR InstName R2
SYMATTR Value 22k
SYMBOL polcap 224 400 R0
WINDOW 3 24 64 Left 0
SYMATTR Value 10u
SYMATTR InstName C1
SYMATTR Description Capacitor
SYMATTR Type cap
SYMATTR SpiceLine V=63 Irms=170m Rser=1 Lser=0 mfg="Nichicon" pn="UPG1J100MPH" type="Al electrolytic"
SYMBOL Robertugo\\Pote 304 256 R0
SYMATTR InstName U1
SYMATTR Value R=2k2
SYMATTR Value2 Set=.33
SYMBOL voltage -112 80 R0
SYMATTR InstName V+
SYMATTR Value 6
SYMBOL res 368 160 R0
WINDOW 0 -11 30 Left 0
WINDOW 3 -20 65 Left 0
SYMATTR InstName RL
SYMATTR Value 1.25
SYMBOL res 160 176 R0
SYMATTR InstName R3
SYMATTR Value 22
TEXT 328 480 Left 0 !.tran 10m
