Version 4
SHEET 1 1056 680
WIRE -416 -16 -432 -16
WIRE -192 -16 -352 -16
WIRE -144 -16 -192 -16
WIRE 48 -16 -144 -16
WIRE 640 -16 48 -16
WIRE -432 16 -432 -16
WIRE -304 16 -432 16
WIRE -80 16 -224 16
WIRE -48 16 -80 16
WIRE 48 16 48 -16
WIRE -192 32 -192 -16
WIRE -80 32 -80 16
WIRE -704 48 -768 48
WIRE -672 48 -704 48
WIRE -576 48 -608 48
WIRE 640 48 640 -16
WIRE 656 48 640 48
WIRE -432 80 -432 16
WIRE -368 80 -432 80
WIRE -304 80 -368 80
WIRE 272 80 176 80
WIRE 512 80 400 80
WIRE 560 80 512 80
WIRE 640 80 640 48
WIRE 640 80 560 80
WIRE 704 80 640 80
WIRE 512 112 512 80
WIRE -768 128 -768 48
WIRE -192 128 -192 112
WIRE -192 128 -240 128
WIRE -80 128 -80 112
WIRE -80 128 -192 128
WIRE 0 128 0 80
WIRE 48 128 0 128
WIRE 176 128 176 80
WIRE 176 128 144 128
WIRE 560 128 560 80
WIRE 640 128 640 80
WIRE -976 160 -1024 160
WIRE -848 160 -896 160
WIRE -704 160 -704 48
WIRE -672 160 -704 160
WIRE -592 160 -608 160
WIRE -1024 192 -1024 160
WIRE -304 192 -304 176
WIRE 0 192 0 128
WIRE 0 192 -304 192
WIRE -848 208 -848 160
WIRE -528 208 -560 208
WIRE -368 224 -368 80
WIRE 240 224 224 224
WIRE 336 224 336 128
WIRE 336 224 304 224
WIRE 512 224 512 192
WIRE 512 224 336 224
WIRE 560 224 560 192
WIRE 560 224 512 224
WIRE 704 224 704 80
WIRE -768 240 -768 208
WIRE -528 240 -768 240
WIRE -432 240 -432 80
WIRE -432 240 -464 240
WIRE -768 272 -768 240
WIRE -576 272 -576 48
WIRE -528 272 -576 272
WIRE -144 272 -144 -16
WIRE -208 288 -240 288
WIRE 224 288 224 224
WIRE 224 288 -16 288
WIRE 272 288 272 256
WIRE 272 288 224 288
WIRE 560 288 560 224
WIRE -1024 320 -1024 272
WIRE -912 320 -1024 320
WIRE -848 320 -848 288
WIRE -848 320 -912 320
WIRE -672 320 -704 320
WIRE -576 320 -576 272
WIRE -576 320 -608 320
WIRE -432 320 -432 240
WIRE -16 320 -16 288
WIRE -560 336 -560 208
WIRE -368 336 -368 304
WIRE -304 336 -368 336
WIRE 96 336 96 192
WIRE 224 336 224 288
WIRE -912 352 -912 320
WIRE -368 352 -368 336
WIRE -208 368 -208 288
WIRE -144 368 -144 352
WIRE -144 368 -208 368
WIRE -80 368 -144 368
WIRE 704 384 704 304
WIRE 704 384 672 384
WIRE 672 400 672 384
WIRE -912 448 -912 432
WIRE -768 448 -768 352
WIRE -704 448 -704 320
WIRE -704 448 -768 448
WIRE -672 448 -704 448
WIRE -592 448 -592 160
WIRE -592 448 -608 448
WIRE -560 448 -560 416
WIRE -560 448 -592 448
WIRE -432 448 -432 384
WIRE -432 448 -560 448
WIRE -368 448 -368 432
WIRE -368 448 -432 448
WIRE -240 448 -240 384
WIRE -240 448 -368 448
WIRE -16 448 -16 416
WIRE -16 448 -240 448
WIRE 96 448 96 416
WIRE 96 448 -16 448
WIRE 224 448 224 416
WIRE 224 448 96 448
WIRE 560 448 560 352
WIRE 560 448 224 448
WIRE 640 448 640 192
WIRE 640 448 560 448
WIRE 704 448 704 384
WIRE 704 448 640 448
FLAG 656 48 Out
IOPIN 656 48 Out
FLAG -912 448 0
FLAG 672 400 0
SYMBOL diode -672 64 R270
WINDOW 0 16 -2 VTop 0
WINDOW 3 42 87 VBottom 0
SYMATTR InstName D1
SYMATTR Value MR760
SYMBOL diode -608 176 M270
WINDOW 0 16 69 VTop 0
WINDOW 3 64 10 Invisible 0
SYMATTR InstName D2
SYMATTR Value MR760
SYMBOL diode -672 336 R270
WINDOW 0 16 -9 VTop 0
WINDOW 3 66 52 Invisible 0
SYMATTR InstName D3
SYMATTR Value MR760
SYMBOL diode -608 464 M270
WINDOW 0 16 73 VTop 0
WINDOW 3 67 11 Invisible 0
SYMATTR InstName D4
SYMATTR Value MR760
SYMBOL Robertugo\\reg3all 400 96 R0
SYMATTR InstName U1
SYMATTR SpiceModel LM317
SYMBOL diode -352 -32 R90
WINDOW 0 16 65 VBottom 0
WINDOW 3 -12 -26 VTop 0
SYMATTR InstName D5
SYMATTR Value 1N4002
SYMBOL diode 576 192 R180
WINDOW 0 -29 -23 Left 0
WINDOW 3 -18 -8 VRight 0
SYMATTR InstName D6
SYMATTR Value 1N4002
SYMBOL res 496 96 R0
WINDOW 0 -34 93 Left 0
WINDOW 3 -33 114 Left 0
SYMATTR InstName R7
SYMATTR Value 270
SYMBOL Robertugo\\Pote 208 240 R270
WINDOW 0 -2 141 VLeft 0
WINDOW 3 47 98 VLeft 0
WINDOW 123 -3 198 VCenter 0
SYMATTR InstName Pote
SYMATTR Value Rt=5k
SYMATTR Value2 Set={cur}
SYMBOL res 208 320 R0
WINDOW 0 -21 30 Left 0
WINDOW 3 -26 63 Left 0
SYMATTR InstName R6
SYMATTR Value 5k1
SYMBOL npn2 -80 320 R0
WINDOW 3 66 6 VRight 0
WINDOW 0 23 48 Left 0
SYMATTR Value BC548C
SYMATTR InstName Q2
SYMBOL npn2 -304 288 R0
WINDOW 3 69 6 VRight 0
WINDOW 0 21 46 Left 0
SYMATTR Value BC548A
SYMATTR InstName Q1
SYMBOL res -384 336 R0
WINDOW 0 37 42 Left 0
WINDOW 3 41 62 Left 0
SYMATTR InstName Rd2
SYMATTR Value 1k
SYMBOL res -384 208 R0
WINDOW 0 30 49 Left 0
WINDOW 3 31 84 Left 0
SYMATTR InstName Rd1
SYMATTR Value 56k
SYMBOL res -160 256 R0
WINDOW 0 33 46 Left 0
WINDOW 3 27 85 Left 0
SYMATTR InstName R5
SYMATTR Value 22k
SYMBOL polcap -448 320 R0
WINDOW 3 -55 35 Left 0
WINDOW 0 -48 9 Left 0
SYMATTR Value 10m
SYMATTR InstName Cf1
SYMATTR Description Capacitor
SYMATTR Type cap
SYMATTR SpiceLine V=63 Irms=10 Rser=0.008 Lser=0
SYMBOL polcap 544 288 R0
WINDOW 0 28 14 Left 0
SYMATTR InstName Cf3
SYMATTR Value 5u
SYMATTR Description Capacitor
SYMATTR Type cap
SYMATTR SpiceLine V=50 Irms=170m Rser=1 MTBF=5000 Lser=0 mfg="Nichicon" pn="UPG1H100MPH" type="Al electrolytic" ppPkg=1
SYMBOL polcap 624 128 R0
WINDOW 3 24 64 Left 0
SYMATTR Value 1u
SYMATTR InstName Cf4
SYMATTR Description Capacitor
SYMATTR Type cap
SYMATTR SpiceLine V=50 Irms=36m Rser=3.5 MTBF=2000 Lser=0 mfg="Nichicon" pn="UPL1H010MAH" type="Al electrolytic" ppPkg=1
SYMBOL ind2 -752 224 R180
WINDOW 0 -43 70 Left 0
WINDOW 3 -47 44 Left 0
SYMATTR InstName Ls1
SYMATTR Value 10m
SYMBOL ind2 -752 368 R180
WINDOW 0 -45 84 Left 0
WINDOW 3 -49 56 Left 0
SYMATTR InstName Ls2
SYMATTR Value 10m
SYMBOL ind2 -864 304 M180
WINDOW 0 -36 80 Left 0
WINDOW 3 -25 53 Left 0
SYMATTR InstName Lp
SYMATTR Value 1
SYMATTR SpiceLine Rser=1
SYMBOL res -928 336 R0
SYMATTR InstName Rfuga
SYMATTR Value 1g
SYMBOL voltage -1024 176 R0
WINDOW 0 -15 58 Left 0
WINDOW 3 5 108 Left 0
WINDOW 123 0 0 Left 0
WINDOW 39 0 0 Left 0
SYMATTR InstName V1
SYMATTR Value SINE(0 311 50)
SYMBOL Robertugo\\Sw321 -496 240 R0
SYMATTR InstName LL
SYMATTR Value sel={llave}
SYMBOL res -576 320 R0
WINDOW 0 -68 43 Left 0
WINDOW 3 -56 71 Left 0
SYMATTR InstName Roff
SYMATTR Value 1g
SYMBOL res -880 144 R90
WINDOW 0 0 56 VBottom 0
WINDOW 3 32 56 VTop 0
SYMATTR InstName Rfuse
SYMATTR Value 0.1
SYMBOL pnp2 -240 176 R180
WINDOW 0 17 47 Left 0
WINDOW 3 60 16 VRight 0
SYMATTR InstName Q3
SYMATTR Value BD132
SYMBOL res -320 32 R270
WINDOW 0 16 -13 VTop 0
WINDOW 3 16 1 VBottom 0
SYMATTR InstName Rlim
SYMATTR Value .1
SYMBOL pnp2 48 80 M270
WINDOW 0 34 65 VLeft 0
WINDOW 3 68 91 VLeft 0
SYMATTR InstName Q4
SYMATTR Value TIP2955
SYMBOL res 688 208 R0
WINDOW 0 -28 29 Left 0
WINDOW 3 -25 64 Left 0
SYMATTR InstName RL
SYMATTR Value 8
SYMBOL res -176 128 R180
WINDOW 0 36 76 Left 0
WINDOW 3 28 48 Left 0
SYMATTR InstName R2
SYMATTR Value 4k1
SYMBOL res -64 128 R180
WINDOW 0 24 82 Left 0
WINDOW 3 21 47 Left 0
SYMATTR InstName R3
SYMATTR Value 150
SYMBOL pnp2 144 192 M270
WINDOW 0 34 61 VLeft 0
WINDOW 3 60 77 VLeft 0
SYMATTR InstName Q5
SYMATTR Value BD440
SYMBOL res 80 320 R0
WINDOW 0 -21 30 Left 0
WINDOW 3 -26 63 Left 0
SYMATTR InstName R1
SYMATTR Value 10k
TEXT 232 408 Left 0 !.tran {.05*llave*llave} startup
TEXT -808 160 VRight 0 !K Lp Ls1 Ls2 1
TEXT -1032 8 Left 0 ;Vout=1.25 V * (1+ Rpote/R1) + Iadj * Rpote; Iadj=45 uA
TEXT -1048 40 Left 0 !.step param cur 0 1 .5\n.step param llave=2 3 1
