Version 4
SHEET 1 1056 680
WIRE -80 0 -304 0
WIRE 160 0 -16 0
WIRE 688 0 160 0
WIRE -560 48 -624 48
WIRE -528 48 -560 48
WIRE -432 48 -464 48
WIRE -304 80 -304 0
WIRE -208 80 -304 80
WIRE -160 80 -208 80
WIRE 64 80 -160 80
WIRE 160 80 160 0
WIRE 208 80 176 80
WIRE 496 80 464 80
WIRE 640 80 496 80
WIRE 688 80 688 0
WIRE 688 80 640 80
WIRE 848 80 688 80
WIRE 912 80 848 80
WIRE 944 80 912 80
WIRE 496 112 496 80
WIRE -624 128 -624 48
WIRE -256 128 -400 128
WIRE -208 128 -208 80
WIRE 688 128 688 80
WIRE 848 128 848 80
WIRE -832 160 -880 160
WIRE -704 160 -752 160
WIRE -560 160 -560 48
WIRE -528 160 -560 160
WIRE -448 160 -464 160
WIRE -880 192 -880 160
WIRE -704 208 -704 160
WIRE -384 208 -416 208
WIRE -256 208 -256 128
WIRE -160 208 -160 80
WIRE -128 208 -160 208
WIRE 112 208 112 144
WIRE 112 208 -48 208
WIRE 176 208 176 80
WIRE 176 208 112 208
WIRE 240 224 224 224
WIRE 336 224 336 176
WIRE 336 224 304 224
WIRE 416 224 336 224
WIRE 496 224 496 192
WIRE 496 224 416 224
WIRE 688 224 688 192
WIRE 688 224 496 224
WIRE 944 224 944 80
WIRE -624 240 -624 208
WIRE -400 240 -400 128
WIRE -400 240 -624 240
WIRE -384 240 -400 240
WIRE -304 240 -304 80
WIRE -304 240 -320 240
WIRE 416 240 416 224
WIRE -160 256 -160 208
WIRE 224 256 224 224
WIRE 224 256 128 256
WIRE 272 256 224 256
WIRE 336 256 336 224
WIRE -624 272 -624 240
WIRE -432 272 -432 48
WIRE -384 272 -432 272
WIRE 688 288 688 224
WIRE -256 304 -256 288
WIRE -208 304 -208 208
WIRE -208 304 -256 304
WIRE 16 304 -48 304
WIRE 64 304 16 304
WIRE 416 304 400 304
WIRE 448 304 416 304
WIRE -880 320 -880 272
WIRE -768 320 -880 320
WIRE -704 320 -704 288
WIRE -704 320 -768 320
WIRE -528 320 -560 320
WIRE -432 320 -432 272
WIRE -432 320 -464 320
WIRE 224 320 224 256
WIRE -416 336 -416 208
WIRE -256 336 -256 304
WIRE -256 336 -368 336
WIRE 16 336 16 304
WIRE 416 336 416 304
WIRE -768 352 -768 320
WIRE -160 352 -160 336
WIRE -112 352 -160 352
WIRE 592 352 512 352
WIRE -368 368 -368 336
WIRE -304 368 -304 240
WIRE -256 368 -256 336
WIRE -160 368 -160 352
WIRE 944 384 944 304
WIRE 944 384 896 384
WIRE -208 400 -224 400
WIRE 896 416 896 384
WIRE 16 432 16 416
WIRE 416 432 416 416
WIRE 416 432 16 432
WIRE 640 432 640 80
WIRE 640 432 416 432
WIRE -768 448 -768 432
WIRE -624 448 -624 352
WIRE -560 448 -560 320
WIRE -560 448 -624 448
WIRE -528 448 -560 448
WIRE -448 448 -448 160
WIRE -448 448 -464 448
WIRE -416 448 -416 416
WIRE -416 448 -448 448
WIRE -368 448 -368 432
WIRE -368 448 -416 448
WIRE -304 448 -304 432
WIRE -304 448 -368 448
WIRE -256 448 -256 432
WIRE -256 448 -304 448
WIRE -160 448 -256 448
WIRE -48 448 -48 400
WIRE -48 448 -160 448
WIRE 128 448 128 352
WIRE 128 448 -48 448
WIRE 224 448 224 400
WIRE 224 448 128 448
WIRE 336 448 336 352
WIRE 336 448 224 448
WIRE 448 448 448 400
WIRE 448 448 336 448
WIRE 688 448 688 352
WIRE 688 448 448 448
WIRE 848 448 848 192
WIRE 848 448 688 448
WIRE 944 448 944 384
WIRE 944 448 848 448
WIRE -208 496 -208 400
WIRE 592 496 592 352
WIRE 592 496 -208 496
FLAG 912 80 Out
FLAG -768 448 0
FLAG 896 416 0
SYMBOL diode -528 64 R270
WINDOW 0 16 -2 VTop 0
WINDOW 3 42 87 VBottom 0
SYMATTR InstName D1
SYMATTR Value MR760
SYMBOL diode -464 176 M270
WINDOW 0 16 69 VTop 0
WINDOW 3 64 10 Invisible 0
SYMATTR InstName D2
SYMATTR Value MR760
SYMBOL diode -528 336 R270
WINDOW 0 16 -9 VTop 0
WINDOW 3 66 52 Invisible 0
SYMATTR InstName D3
SYMATTR Value MR760
SYMBOL diode -464 464 M270
WINDOW 0 16 73 VTop 0
WINDOW 3 67 11 Invisible 0
SYMATTR InstName D4
SYMATTR Value MR760
SYMBOL Robertugo\\reg3all 336 80 R0
WINDOW 38 0 -20 Center 0
SYMATTR SpiceModel LM317MOT
SYMATTR InstName U1
SYMBOL diode -16 -16 R90
WINDOW 0 44 65 VBottom 0
WINDOW 3 16 -45 VTop 0
SYMATTR InstName D5
SYMATTR Value 1N4002
SYMBOL diode 704 192 R180
WINDOW 0 -29 -23 Left 0
WINDOW 3 -18 -8 VRight 0
SYMATTR InstName D6
SYMATTR Value 1N4002
SYMBOL res 480 96 R0
WINDOW 0 -34 97 Left 0
WINDOW 3 -33 118 Left 0
SYMATTR InstName R7
SYMATTR Value 120
SYMBOL Robertugo\\Pote 208 240 R270
WINDOW 0 5 10 VLeft 0
WINDOW 3 47 98 VLeft 0
WINDOW 123 -38 77 VCenter 0
SYMATTR InstName Pote
SYMATTR Value Rt=2K2
SYMATTR Value2 Set={cur}
SYMBOL res 208 304 R0
WINDOW 0 26 9 Left 0
WINDOW 3 21 48 Left 0
SYMATTR InstName R6
SYMATTR Value 2k2
SYMBOL npn2 64 256 R0
WINDOW 3 -23 111 Left 0
WINDOW 0 -2 10 Left 0
SYMATTR Value BC546A
SYMATTR InstName Q2
SYMBOL npn2 -112 304 R0
WINDOW 3 -28 131 Left 0
WINDOW 0 20 48 Left 0
SYMATTR Value BC546A
SYMATTR InstName Q1
SYMBOL res -176 352 R0
WINDOW 0 37 42 Left 0
WINDOW 3 34 62 Left 0
SYMATTR InstName Rd2
SYMATTR Value 1k5
SYMBOL res -176 240 R0
WINDOW 0 45 33 Left 0
WINDOW 3 42 67 Left 0
SYMATTR InstName Rd1
SYMATTR Value 100k
SYMBOL res 0 320 R0
WINDOW 0 -22 32 Left 0
WINDOW 3 -27 66 Left 0
SYMATTR InstName R5
SYMATTR Value 10k
SYMBOL polcap -320 368 R0
WINDOW 3 -36 -52 Left 0
WINDOW 0 -32 -68 Left 0
SYMATTR Value 10m
SYMATTR InstName Cf1
SYMATTR Description Capacitor
SYMATTR Type cap
SYMATTR SpiceLine V=63 Irms=10 Rser=0.008 Lser=0
SYMBOL polcap 672 288 R0
WINDOW 0 28 14 Left 0
SYMATTR InstName Cf3
SYMATTR Value 10µ
SYMATTR Description Capacitor
SYMATTR Type cap
SYMATTR SpiceLine V=50 Irms=170m Rser=1 MTBF=5000 Lser=0 mfg="Nichicon" pn="UPG1H100MPH" type="Al electrolytic" ppPkg=1
SYMBOL polcap 832 128 R0
WINDOW 3 24 64 Left 0
SYMATTR Value 1µ
SYMATTR InstName Cf4
SYMATTR Description Capacitor
SYMATTR Type cap
SYMATTR SpiceLine V=50 Irms=36m Rser=3.5 MTBF=2000 Lser=0 mfg="Nichicon" pn="UPL1H010MAH" type="Al electrolytic" ppPkg=1
SYMBOL ind2 -608 224 R180
WINDOW 0 -43 70 Left 0
WINDOW 3 -47 44 Left 0
SYMATTR InstName Ls1
SYMATTR Value 10m
SYMBOL ind2 -608 368 R180
WINDOW 0 -45 84 Left 0
WINDOW 3 -49 56 Left 0
SYMATTR InstName Ls2
SYMATTR Value 10m
SYMBOL ind2 -720 304 M180
WINDOW 0 -36 80 Left 0
WINDOW 3 -25 53 Left 0
SYMATTR InstName Lp
SYMATTR Value 1
SYMATTR SpiceLine Rser=1
SYMBOL res -784 336 R0
SYMATTR InstName Rfuga
SYMATTR Value 1g
SYMBOL voltage -880 176 R0
WINDOW 0 -15 58 Left 0
WINDOW 3 5 108 Left 0
WINDOW 123 0 0 Left 0
WINDOW 39 0 0 Left 0
SYMATTR InstName V1
SYMATTR Value SINE(0 311 50)
SYMBOL Robertugo\\Sw321 -352 240 R0
SYMATTR InstName LL
SYMATTR Value sel={llave}
SYMBOL res -432 320 R0
WINDOW 0 -68 43 Left 0
WINDOW 3 -56 71 Left 0
SYMATTR InstName Roff
SYMATTR Value 1g
SYMBOL res -736 144 R90
WINDOW 0 17 129 VBottom 0
WINDOW 3 -11 -12 VTop 0
SYMATTR InstName Rfuse
SYMATTR Value 0.1
SYMBOL res -32 192 R90
WINDOW 0 15 7 VBottom 0
WINDOW 3 -12 105 VTop 0
SYMATTR InstName RlimIc
SYMATTR Value 3.9
SYMBOL pnp2 160 144 M270
WINDOW 0 62 73 Left 0
WINDOW 3 21 48 Left 0
SYMATTR InstName Q4
SYMATTR Value TIP2955
SYMBOL res 928 208 R0
WINDOW 0 -24 -29 Left 0
WINDOW 3 -20 138 VLeft 0
SYMATTR InstName RL
SYMATTR Value 15
SYMBOL npn2 400 256 M0
WINDOW 3 20 51 Left 0
WINDOW 0 -2 10 Left 0
SYMATTR Value BC546A
SYMATTR InstName Q5
SYMBOL cap 400 240 R0
WINDOW 0 41 7 Left 0
WINDOW 3 72 7 Left 0
SYMATTR InstName C2
SYMATTR Value 1µ
SYMBOL res -272 192 R0
WINDOW 0 -22 18 Left 0
WINDOW 3 -30 65 Left 0
SYMATTR InstName R1
SYMATTR Value 100k
SYMBOL cap -384 368 R0
SYMATTR InstName C1
SYMATTR Value 5µ
SYMBOL Robertugo\\Pote -240 464 R180
WINDOW 0 -54 140 Left 0
WINDOW 3 35 -22 Left 0
WINDOW 123 -27 108 Center 0
SYMATTR InstName Pote1
SYMATTR Value Rt=1e4
SYMATTR Value2 Set=.8
SYMBOL npn2 512 304 M0
WINDOW 3 -51 108 Left 0
WINDOW 0 -2 10 Left 0
SYMATTR Value BC546A
SYMATTR InstName Q3
SYMBOL res 400 320 R0
WINDOW 0 -24 35 Left 0
WINDOW 3 -36 63 Left 0
SYMATTR InstName R2
SYMATTR Value 10k
SYMBOL res -224 112 R0
WINDOW 3 17 114 Left 0
SYMATTR InstName R3
SYMATTR Value 330k
TEXT 232 480 Left 0 !.tran {.025*llave*llave*3} startup
TEXT -664 160 VRight 0 !K Lp Ls1 Ls2 1
TEXT -424 464 Left 0 ;Vout=1.25 V * (1+ Rpote/R1) + Iadj * Rpote; Iadj=45 uA.
TEXT -48 224 Left 0 ;1w
TEXT -896 40 Left 0 !.step param cur 0 1 .25\n.step param llave=2 3 1\n.param il 5
