Version 4
SHEET 1 880 680
WIRE 224 -32 80 -32
WIRE 416 -32 288 -32
WIRE 80 0 80 -32
WIRE 464 0 80 0
WIRE -208 48 -288 48
WIRE -176 48 -208 48
WIRE -80 48 -112 48
WIRE 80 80 80 0
WIRE 192 80 80 80
WIRE 416 80 416 -32
WIRE 416 80 320 80
WIRE 448 80 416 80
WIRE 528 80 448 80
WIRE 608 80 528 80
WIRE 672 80 608 80
WIRE 704 80 672 80
WIRE -288 128 -288 48
WIRE 416 128 416 80
WIRE 608 128 608 80
WIRE 528 144 528 80
WIRE -496 160 -544 160
WIRE -368 160 -416 160
WIRE -208 160 -208 48
WIRE -176 160 -208 160
WIRE -96 160 -112 160
WIRE -544 192 -544 160
WIRE -368 208 -368 160
WIRE -16 208 -48 208
WIRE 192 208 144 208
WIRE 704 224 704 80
WIRE -288 240 -288 208
WIRE -16 240 -288 240
WIRE 80 240 80 80
WIRE 80 240 48 240
WIRE 144 240 144 208
WIRE 160 240 144 240
WIRE 256 240 256 128
WIRE 256 240 224 240
WIRE 416 240 416 208
WIRE 416 240 256 240
WIRE 528 240 528 208
WIRE 528 240 416 240
WIRE -288 272 -288 240
WIRE -80 272 -80 48
WIRE -16 272 -80 272
WIRE 144 272 144 240
WIRE 240 272 144 272
WIRE 464 272 464 0
WIRE 336 288 320 288
WIRE 448 288 448 80
WIRE 448 288 416 288
WIRE 528 288 528 240
WIRE -544 320 -544 272
WIRE -432 320 -544 320
WIRE -368 320 -368 288
WIRE -368 320 -432 320
WIRE -176 320 -208 320
WIRE -80 320 -80 272
WIRE -80 320 -112 320
WIRE 144 320 144 272
WIRE 320 320 320 288
WIRE 320 320 304 320
WIRE 352 320 320 320
WIRE -48 336 -48 208
WIRE -432 352 -432 320
WIRE 80 352 80 240
WIRE 464 368 464 352
WIRE 464 368 416 368
WIRE 704 384 704 304
WIRE 704 384 656 384
WIRE 656 416 656 384
WIRE -432 448 -432 432
WIRE -288 448 -288 352
WIRE -208 448 -208 320
WIRE -208 448 -288 448
WIRE -176 448 -208 448
WIRE -96 448 -96 160
WIRE -96 448 -112 448
WIRE -48 448 -48 416
WIRE -48 448 -96 448
WIRE 80 448 80 416
WIRE 80 448 -48 448
WIRE 144 448 144 400
WIRE 144 448 80 448
WIRE 240 448 240 368
WIRE 240 448 144 448
WIRE 352 448 352 416
WIRE 352 448 240 448
WIRE 464 448 352 448
WIRE 528 448 528 352
WIRE 528 448 464 448
WIRE 608 448 608 192
WIRE 608 448 528 448
WIRE 704 448 704 384
WIRE 704 448 608 448
FLAG 672 80 Out
FLAG -432 448 0
FLAG 656 416 0
SYMBOL diode -176 64 R270
WINDOW 0 16 -2 VTop 0
WINDOW 3 42 87 VBottom 0
SYMATTR InstName D1
SYMATTR Value MR760
SYMBOL diode -112 176 M270
WINDOW 0 16 69 VTop 0
WINDOW 3 64 10 Invisible 0
SYMATTR InstName D2
SYMATTR Value MR760
SYMBOL diode -176 336 R270
WINDOW 0 16 -9 VTop 0
WINDOW 3 66 52 Invisible 0
SYMATTR InstName D3
SYMATTR Value MR760
SYMBOL diode -112 464 M270
WINDOW 0 16 73 VTop 0
WINDOW 3 67 11 Invisible 0
SYMATTR InstName D4
SYMATTR Value MR760
SYMBOL Robertugo\\reg3all 320 96 R0
SYMATTR InstName U1
SYMATTR SpiceModel LM317Psp
SYMBOL diode 288 -48 R90
WINDOW 0 44 65 VBottom 0
WINDOW 3 16 -45 VTop 0
SYMATTR InstName D5
SYMATTR Value 1N4002
SYMBOL diode 544 208 R180
WINDOW 0 -39 31 Left 0
WINDOW 3 50 -7 VRight 0
SYMATTR InstName D6
SYMATTR Value 1N4002
SYMBOL res 400 112 R0
WINDOW 0 -33 83 Left 0
WINDOW 3 -33 110 Left 0
SYMATTR InstName R1
SYMATTR Value 120
SYMBOL Robertugo\\Pote 128 224 M90
WINDOW 0 -32 -45 VRight 0
WINDOW 3 -32 12 VRight 0
WINDOW 123 -30 172 VCenter 0
SYMATTR InstName Pote
SYMATTR Value Rt=2K
SYMATTR Value2 Set=1
SYMBOL res 128 304 R0
SYMATTR InstName R2
SYMATTR Value 2k2
SYMBOL npn2 304 272 M0
WINDOW 3 18 51 Left 0
SYMATTR Value BC546A
SYMATTR InstName Q2
SYMBOL npn2 416 320 M0
WINDOW 3 18 51 Left 0
SYMATTR Value BC546A
SYMATTR InstName Q1
SYMBOL res 448 352 R0
SYMATTR InstName R3
SYMATTR Value 1k
SYMBOL res 448 256 R0
WINDOW 0 26 47 Left 0
WINDOW 3 25 87 Left 0
SYMATTR InstName R4
SYMATTR Value 56k
SYMBOL res 432 272 R90
WINDOW 0 17 103 VBottom 0
WINDOW 3 -13 6 VTop 0
SYMATTR InstName R5
SYMATTR Value 10k
SYMBOL res 688 208 R0
WINDOW 0 -67 127 Left 0
WINDOW 3 -40 157 Left 0
SYMATTR InstName RLoad
SYMATTR Value 50
SYMBOL polcap 64 352 R0
WINDOW 3 24 64 Left 0
SYMATTR Value 3m3
SYMATTR InstName Cf1
SYMATTR Description Capacitor
SYMATTR Type cap
SYMATTR SpiceLine V=35 Irms=3.04 Rser=0.017 MTBF=5000 Lser=0 mfg="Nichicon" pn="UPL1V332MRH" type="Al electrolytic" ppPkg=1
SYMBOL polcap 512 288 R0
WINDOW 0 28 14 Left 0
SYMATTR InstName Cf2
SYMATTR Value 10u
SYMATTR Description Capacitor
SYMATTR Type cap
SYMATTR SpiceLine V=50 Irms=170m Rser=1 MTBF=5000 Lser=0 mfg="Nichicon" pn="UPG1H100MPH" type="Al electrolytic" ppPkg=1
SYMBOL polcap 592 128 R0
WINDOW 3 24 64 Left 0
SYMATTR Value 1u
SYMATTR InstName Cf3
SYMATTR Description Capacitor
SYMATTR Type cap
SYMATTR SpiceLine V=50 Irms=36m Rser=3.5 MTBF=2000 Lser=0 mfg="Nichicon" pn="UPL1H010MAH" type="Al electrolytic" ppPkg=1
SYMBOL ind2 -272 224 R180
WINDOW 0 -43 70 Left 0
WINDOW 3 -47 44 Left 0
SYMATTR InstName Ls1
SYMATTR Value 7m7
SYMBOL ind2 -272 368 R180
WINDOW 0 -45 84 Left 0
WINDOW 3 -49 56 Left 0
SYMATTR InstName Ls2
SYMATTR Value 7m7
SYMBOL ind2 -384 304 M180
WINDOW 0 -36 80 Left 0
WINDOW 3 -25 53 Left 0
SYMATTR InstName Lp
SYMATTR Value 1
SYMATTR SpiceLine Rser=1
SYMBOL res -448 336 R0
SYMATTR InstName Rfuga
SYMATTR Value 1g
SYMBOL voltage -544 176 R0
WINDOW 0 -15 58 Left 0
WINDOW 3 5 108 Left 0
WINDOW 123 0 0 Left 0
WINDOW 39 0 0 Left 0
SYMATTR InstName V1
SYMATTR Value SINE(0 311 50)
SYMBOL Robertugo\\Sw321 16 240 R0
SYMATTR InstName LL
SYMATTR Value sel=2
SYMBOL res -64 320 R0
WINDOW 0 35 48 Left 0
WINDOW 3 36 86 Left 0
SYMATTR InstName Rfug
SYMATTR Value 1g
SYMBOL res -400 144 R90
WINDOW 0 0 56 VBottom 0
WINDOW 3 32 56 VTop 0
SYMATTR InstName Rfuse
SYMATTR Value 1
TEXT 536 0 Left 0 !.tran 0 1 .6 uic
TEXT -328 160 VRight 0 !K Lp Ls1 Ls2 1
TEXT -528 -16 Left 0 ;Vout=1.25 V * (1+ Rpote/R1) + Iadj * Rpote; Iadj=45 uA.
