Version 4
SHEET 1 880 680
WIRE -160 -112 -240 -112
WIRE -144 -112 -160 -112
WIRE -96 -112 -128 -112
WIRE 128 -112 -96 -112
WIRE 208 -112 128 -112
WIRE 224 -112 208 -112
WIRE 128 -96 128 -112
WIRE 208 -96 208 -112
WIRE -304 -80 -480 -80
WIRE -240 -80 -240 -112
WIRE -160 -64 -160 -112
WIRE -144 -64 -160 -64
WIRE -112 -64 -128 -64
WIRE -480 -48 -480 -80
WIRE -304 -48 -304 -80
WIRE -240 -32 -240 -48
WIRE -48 -32 -240 -32
WIRE 32 -32 16 -32
WIRE -240 -16 -240 -32
WIRE -144 -16 -160 -16
WIRE -112 -16 -112 -64
WIRE -112 -16 -128 -16
WIRE -80 -16 -112 -16
WIRE -80 0 -80 -16
WIRE -48 0 -80 0
WIRE 32 0 32 -32
WIRE 128 0 128 -32
WIRE 128 0 32 0
WIRE 208 0 208 -64
WIRE 208 0 128 0
WIRE 336 0 208 0
WIRE -480 16 -480 -16
WIRE -368 16 -480 16
WIRE -304 16 -304 -16
WIRE -304 16 -368 16
WIRE -240 32 -240 16
WIRE -160 32 -160 -16
WIRE -160 32 -240 32
WIRE -144 32 -160 32
WIRE -96 32 -96 -112
WIRE -96 32 -128 32
WIRE 128 32 128 0
WIRE -368 48 -368 16
WIRE -368 96 -368 80
FLAG 128 32 0
FLAG 224 -112 VccOut
IOPIN 224 -112 Out
FLAG -368 96 0
SYMBOL MiniSyms4\\Ind- -304 -32 R0
WINDOW 3 -17 8 Center 0
WINDOW 0 -35 -14 Left 0
SYMATTR Value 1
SYMATTR InstName L1
SYMBOL MiniSyms4\\Ind- -240 0 M0
WINDOW 3 -38 17 Center 0
WINDOW 0 -52 -7 Left 0
SYMATTR Value 2m2
SYMATTR InstName L2b
SYMBOL MiniSyms4\\Ind- -240 -64 M0
WINDOW 3 -30 6 Center 0
WINDOW 0 -48 -17 Left 0
SYMATTR Value 2m2
SYMATTR InstName L2a
SYMBOL MiniSyms4\\diode- -128 -96 R270
WINDOW 3 8 -8 Invisible 0
WINDOW 0 24 -8 VTop 0
SYMATTR Value 1N4001
SYMATTR InstName D1
SYMBOL MiniSyms4\\diode- -144 -48 M270
WINDOW 3 8 -8 Invisible 0
WINDOW 0 24 -8 VTop 0
SYMATTR Value 1N4001
SYMATTR InstName D2
SYMBOL MiniSyms4\\diode- -144 0 M270
WINDOW 3 8 -8 Invisible 0
WINDOW 0 -19 -9 VTop 0
SYMATTR Value 1N4001
SYMATTR InstName D3
SYMBOL MiniSyms4\\diode- -128 48 R270
WINDOW 3 8 -8 Invisible 0
WINDOW 0 -20 -5 VTop 0
SYMATTR Value 1N4001
SYMATTR InstName D4
SYMBOL polcap 144 -96 M0
WINDOW 3 37 33 Left 0
SYMATTR InstName Cf
SYMATTR Value 2200µ
SYMATTR Description Capacitor
SYMATTR Type cap
SYMATTR SpiceLine V=16 Irms=2.01 Rser=0.028 MTBF=5000 Lser=0 mfg="Nichicon" pn="UPL1C222MRH" type="Al electrolytic" ppPkg=1
SYMBOL MiniSyms4\\signal- -480 -32 R0
WINDOW 3 86 29 Center 0
SYMATTR Value SINE(0 312 50)
SYMATTR InstName Vac
SYMBOL Robertugo\\sw321 -16 -32 R0
SYMATTR InstName U1
SYMBOL MiniSyms4\\cap- 208 -64 R0
WINDOW 3 45 8 Center 0
WINDOW 0 45 -17 Right 0
SYMATTR Value 100n
SYMATTR InstName Cf'
SYMBOL MiniSyms4\\res- -368 64 R0
WINDOW 3 22 14 Center 0
SYMATTR Value 1g
SYMATTR InstName R1
TEXT -272 -112 VRight 0 !K1 L1 L2 L3 1
