Version 4
SHEET 1 880 680
WIRE -256 112 -256 96
WIRE -256 272 -256 192
WIRE -256 384 -256 352
WIRE -176 96 -256 96
WIRE -176 208 -176 160
WIRE -176 224 -176 208
WIRE -176 320 -176 288
WIRE -176 384 -256 384
WIRE -128 96 -176 96
WIRE -128 144 -128 96
WIRE -112 208 -176 208
WIRE -112 256 -112 208
WIRE -112 352 -112 320
WIRE -96 144 -128 144
WIRE -96 352 -112 352
WIRE -96 384 -176 384
WIRE -96 400 -96 384
WIRE -64 288 -80 288
WIRE -32 96 -128 96
WIRE 0 352 -16 352
WIRE 0 384 -96 384
WIRE 0 384 0 352
WIRE 32 144 -16 144
WIRE 32 144 32 128
WIRE 32 288 0 288
WIRE 32 384 0 384
WIRE 32 384 32 368
WIRE 64 96 32 96
WIRE 64 128 32 128
WIRE 64 128 64 96
WIRE 64 160 64 128
WIRE 64 384 32 384
WIRE 64 384 64 224
WIRE 80 128 64 128
WIRE 144 96 64 96
WIRE 144 192 144 176
WIRE 144 208 144 192
WIRE 144 288 32 288
WIRE 144 288 144 272
WIRE 144 304 144 288
WIRE 144 384 64 384
WIRE 144 384 144 368
WIRE 176 192 144 192
WIRE 208 288 208 224
WIRE 208 384 144 384
WIRE 208 384 208 352
WIRE 272 96 208 96
WIRE 272 128 144 128
WIRE 272 128 272 96
WIRE 272 160 272 128
WIRE 272 192 256 192
WIRE 272 192 272 160
WIRE 272 224 208 224
WIRE 272 224 272 192
WIRE 272 240 272 224
WIRE 272 384 208 384
WIRE 272 384 272 320
FLAG -96 400 0
FLAG 272 160 Out
SYMBOL diode 80 224 R180
WINDOW 0 16 60 Left 0
WINDOW 3 33 32 Left 0
SYMATTR InstName D1
SYMATTR Value MUR460
SYMBOL diode 160 368 R180
WINDOW 0 20 59 Left 0
WINDOW 3 -20 -10 Invisible 0
SYMATTR InstName D2
SYMATTR Value UPSC600
SYMBOL diode 160 272 R180
WINDOW 0 21 62 Left 0
WINDOW 3 24 0 Invisible 0
SYMATTR InstName D3
SYMATTR Value UPSC600
SYMBOL res 272 176 R90
WINDOW 0 0 102 VBottom 0
WINDOW 3 -28 59 VTop 0
SYMATTR InstName R1
SYMATTR Value 1e5
SYMATTR SpiceLine tol=1 pwr=0.1
SYMBOL res 16 272 R0
WINDOW 0 55 41 Left 0
WINDOW 3 53 76 Left 0
SYMATTR InstName R2
SYMATTR Value 1e5
SYMATTR SpiceLine tol=1 pwr=0.1
SYMBOL res 256 224 R0
WINDOW 0 -32 34 Left 0
WINDOW 3 -32 64 Left 0
SYMATTR InstName R3
SYMATTR Value 470
SYMATTR SpiceLine tol=1 pwr=0.1
SYMBOL polcap 192 288 R0
WINDOW 3 -22 59 Left 0
WINDOW 0 -28 14 Left 0
SYMATTR Value 1m
SYMATTR InstName C1
SYMATTR Description Capacitor
SYMATTR Type cap
SYMATTR SpiceLine V=100 Irms=1.33 Rser=0.047 MTBF=2000 Lser=0 ppPkg=1
SYMBOL cap 208 80 R90
WINDOW 0 17 59 VBottom 0
WINDOW 3 -11 -8 VTop 0
SYMATTR InstName C2
SYMATTR Value 560n
SYMBOL res 0 128 R90
WINDOW 0 16 109 VBottom 0
WINDOW 3 -11 4 VTop 0
SYMATTR InstName R4
SYMATTR Value 330K
SYMATTR SpiceLine tol=1 pwr=0.1
SYMBOL cap 32 80 R90
WINDOW 0 15 54 VBottom 0
WINDOW 3 -12 3 VTop 0
SYMATTR InstName C3
SYMATTR Value 22µ
SYMBOL cap -192 96 R0
WINDOW 0 24 14 Left 0
WINDOW 3 24 51 Left 0
SYMATTR InstName C4
SYMATTR Value 1µ
SYMBOL zener -160 288 R180
WINDOW 0 -16 64 Left 0
WINDOW 3 68 54 Invisible 0
SYMATTR InstName D4
SYMATTR Value MMSD4148
SYMBOL zener -160 384 R180
WINDOW 0 -16 63 Left 0
WINDOW 3 68 8 Invisible 0
SYMATTR InstName D5
SYMATTR Value MMSD4148
SYMBOL Pote -96 352 R180
WINDOW 0 39 67 Left 0
WINDOW 123 -53 91 Center 0
WINDOW 3 -48 115 Center 0
SYMATTR InstName U2
SYMATTR Value2 Set=.28
SYMBOL res -240 208 R180
WINDOW 0 -35 80 Left 0
WINDOW 3 -30 55 Left 0
SYMATTR InstName R5
SYMATTR Value 10
SYMATTR SpiceLine tol=1 pwr=0.1
SYMBOL voltage -256 256 R0
WINDOW 123 0 0 Left 0
WINDOW 39 48 11 VRight 0
WINDOW 0 -33 9 Left 0
WINDOW 3 46 -53 VRight 0
SYMATTR InstName V1
SYMATTR Value SINE(0 310 50)
SYMBOL res 0 336 R90
WINDOW 0 47 91 VBottom 0
WINDOW 3 20 16 VTop 0
SYMATTR InstName R6
SYMATTR Value 1K
SYMATTR SpiceLine tol=1 pwr=0.1
SYMBOL polcap -64 272 M90
WINDOW 0 45 8 VBottom 0
WINDOW 3 16 66 VTop 0
SYMATTR InstName C5
SYMATTR Value 2.2µ
SYMATTR Description Capacitor
SYMATTR Type cap
SYMATTR SpiceLine V=100 Irms=22m Rser=9.8 MTBF=1000 Lser=0 mfg="Nichicon" pn="UPR2A2R2MAH" type="Al electrolytic" ppPkg=1
SYMBOL Thyr_All 80 144 R270
WINDOW 0 -19 17 VRight 0
SYMATTR InstName U3
TEXT -256 400 Left 0 !.tran 2
TEXT -64 400 Left 0 !;.Step param cursor 0 1 .34
