*$
*//-----------------------------------------------------------------------//
*//   Part No.    : KTJ350B476M55BFT00
*//   Date        : 2020/10/26
*//   Update 	  :
*//   Temperature : 25deg.C
*//   Model       : 7 Elements Model
*//   Copyright (C) 2020 Nippon Chemi-Con Corporation.
*//   All Rights Reserved.
*//-----------------------------------------------------------------------//


.SUBCKT KTJ350B476M55BFT00_25deg-C_DC0V 1 2

C1 4 2 3.941e-05
C2 6 2 1.021e-06
R1 1 3 3.000e-03
R2 3 5 3.400e-02
R3 4 6 4.300e+01
L1 3 4 2.952e-09
L2 5 4 0.897e-09

.ENDS
*$
