*$
*//-----------------------------------------------------------------------//
*//   Part No.    : KTS101B475K43E0T00
*//   Date        : 2020/10/26
*//   Update 	  :
*//   Temperature : 25deg.C
*//   Model       : 7 Elements Model
*//   Copyright (C) 2020 Nippon Chemi-Con Corporation.
*//   All Rights Reserved.
*//-----------------------------------------------------------------------//


.SUBCKT KTS101B475K43E0T00_25deg-C_DC0V 1 2

C1 4 2 4.123e-06
C2 6 2 0.101e-06
R1 1 3 2.900e-03
R2 3 5 1.202e-01
R3 4 6 1.780e+01
L1 3 4 1.247e-09
L2 5 4 1.411e-09

.ENDS
*$
