*$
*//-----------------------------------------------------------------------//
*//   Part No.    : KTS500B106M55N0T00
*//   Date        : 2020/10/26
*//   Update 	  :
*//   Temperature : 25deg.C
*//   Model       : 7 Elements Model
*//   Copyright (C) 2020 Nippon Chemi-Con Corporation.
*//   All Rights Reserved.
*//-----------------------------------------------------------------------//


.SUBCKT KTS500B106M55N0T00_25deg-C_DC0V 1 2

C1 4 2 9.582e-06
C2 6 2 0.254e-06
R1 1 3 2.400e-03
R2 3 5 5.290e-02
R3 4 6 6.600e+00
L1 3 4 0.965e-09
L2 5 4 0.803e-09

.ENDS
*$
