Version 4
SHEET 1 880 680
WIRE 48 64 -80 64
WIRE 208 64 128 64
WIRE 400 64 272 64
WIRE -80 96 -80 64
WIRE 208 96 208 64
WIRE 272 96 272 64
WIRE 400 96 400 64
WIRE -80 208 -80 176
WIRE 208 208 208 176
WIRE 272 208 272 176
WIRE 400 208 400 176
FLAG -80 208 0
FLAG 208 208 0
FLAG 272 208 0
FLAG 400 208 0
SYMBOL ind2 192 80 R0
WINDOW 0 -29 36 Left 0
WINDOW 3 -43 80 Left 0
SYMATTR InstName L1
SYMATTR Value 100
SYMATTR Type ind
SYMBOL ind2 288 192 R180
WINDOW 0 -38 80 Left 0
WINDOW 3 -69 31 Left 0
SYMATTR InstName L2
SYMATTR Value 250m
SYMATTR Type ind
SYMBOL res 144 48 R90
WINDOW 0 0 56 VBottom 0
WINDOW 3 32 56 VTop 0
SYMATTR InstName R1
SYMATTR Value 400
SYMBOL res 384 80 R0
SYMATTR InstName R2
SYMATTR Value 0.1m
SYMBOL voltage -80 80 R0
WINDOW 3 21 100 Left 0
WINDOW 123 0 0 Left 0
WINDOW 39 0 0 Left 0
SYMATTR Value SINE(0 310 50 0 0)
SYMATTR InstName V1
TEXT -16 224 Left 0 !.tran 0 1.1 1 0.1m
TEXT 184 40 Left 0 !K L1 L2 0.9
