Version 4
SHEET 1 2080 1988
WIRE -48 -464 -256 -464
WIRE -256 -336 -256 -464
WIRE -256 -192 -256 -256
WIRE -48 32 -48 -464
WIRE 400 64 64 64
WIRE 912 64 544 64
WIRE 1392 64 1056 64
WIRE 400 144 64 144
WIRE 912 144 544 144
WIRE 1392 144 1056 144
WIRE -48 512 -48 176
WIRE 32 512 32 176
WIRE 432 512 432 176
WIRE 512 512 512 176
WIRE 944 512 944 176
WIRE 1024 512 1024 176
WIRE 1424 512 1424 176
WIRE 1504 512 1504 176
WIRE 400 544 64 544
WIRE 912 544 544 544
WIRE 1392 544 1056 544
WIRE 400 624 64 624
WIRE 912 624 544 624
WIRE 1392 624 1056 624
WIRE -48 976 -48 656
WIRE 32 976 32 656
WIRE 432 976 432 656
WIRE 512 976 512 656
WIRE 944 976 944 656
WIRE 1024 976 1024 656
WIRE 1424 976 1424 656
WIRE 1504 976 1504 656
WIRE 400 1008 64 1008
WIRE 912 1008 544 1008
WIRE 1392 1008 1056 1008
WIRE 400 1088 64 1088
WIRE 912 1088 544 1088
WIRE 1392 1088 1056 1088
WIRE -48 1456 -48 1120
WIRE 32 1456 32 1120
WIRE 432 1456 432 1120
WIRE 512 1456 512 1120
WIRE 944 1456 944 1120
WIRE 1024 1456 1024 1120
WIRE 1424 1456 1424 1120
WIRE 1504 1456 1504 1120
WIRE 400 1488 64 1488
WIRE 912 1488 544 1488
WIRE 1392 1488 1056 1488
WIRE 400 1568 64 1568
WIRE 912 1568 544 1568
WIRE 1392 1568 1056 1568
WIRE 944 1968 944 1600
FLAG -256 -192 0
FLAG 944 1968 0
SYMBOL pcb_1x1cm2_5oz -64 128 R0
SYMATTR InstName X1
SYMBOL pcb_1x1cm2_5oz 416 128 R0
SYMATTR InstName X2
SYMBOL pcb_1x1cm2_5oz 928 128 R0
SYMATTR InstName X3
SYMBOL pcb_1x1cm2_5oz 1408 128 R0
SYMATTR InstName X4
SYMBOL pcb_1x1cm2_5oz -64 608 R0
SYMATTR InstName X5
SYMBOL pcb_1x1cm2_5oz 416 608 R0
SYMATTR InstName X6
SYMBOL pcb_1x1cm2_5oz 928 608 R0
SYMATTR InstName X7
SYMBOL pcb_1x1cm2_5oz 1408 608 R0
SYMATTR InstName X8
SYMBOL pcb_1x1cm2_5oz -64 1072 R0
SYMATTR InstName X9
SYMBOL pcb_1x1cm2_5oz 416 1072 R0
SYMATTR InstName X10
SYMBOL pcb_1x1cm2_5oz 928 1072 R0
SYMATTR InstName X11
SYMBOL pcb_1x1cm2_5oz 1408 1072 R0
SYMATTR InstName X12
SYMBOL pcb_1x1cm2_5oz -64 1552 R0
SYMATTR InstName X13
SYMBOL pcb_1x1cm2_5oz 416 1552 R0
SYMATTR InstName X14
SYMBOL pcb_1x1cm2_5oz 928 1552 R0
SYMATTR InstName X15
SYMBOL pcb_1x1cm2_5oz 1408 1552 R0
SYMATTR InstName X16
SYMBOL current -256 -256 R180
WINDOW 0 24 88 Left 0
WINDOW 3 24 0 Left 0
WINDOW 123 0 0 Left 0
WINDOW 39 0 0 Left 0
SYMATTR InstName I1
SYMATTR Value 50
TEXT -424 624 Left 0 !;op
TEXT -408 464 Left 0 !.tran 1m
