* Copyright (c) 1998-2023 Analog Devices, Inc.  All rights reserved.
*
.subckt AD630 1 2 3 4 5 6 7 8 9 10 11 12 13 14 15 16
EREF MID 0 N052 0 1
R6 N025 N021 500G
R7 N012 N021 500G
IOS1 N012 N025 -5n
CIN1 N025 N012 1p
Q3 N008 N025 N030 0 QN
Q4 N009 N014 N031 0 QN
R8 N002 N008 12.736k
R9 N002 N009 12.736k
C1 N008 N009 3.675p
R10 N030 N036 12.22k
R11 N031 N036 12.22k
G2 N036 15 _COMP MID 100.2µ
D4 15 N036 DZ
R17 N007 N012 2.5k
R12 N048 N046 500G
R13 N046 N040 500G
IOS2 N040 N048 -5n
CIN2 N048 N040 1p
Q5 N008 N048 N049 0 QN
Q6 N009 N042 N050 0 QN
R14 N049 N051 12.220k
R15 N050 N051 12.220k
G3 N051 15 MID _COMP 100.2µ
D5 15 N051 DZ
R18 N034 N040 2.5k
G1 MID N003 N009 N008 78.518µ
RPI N003 MID 12.736k
C2 N003 N015 2.222p
RL N015 MID 1Meg
CC N003 N004 2.75p
D6 N015 N010 DX
D7 N035 N015 DX
V2 N002 N010 1.42
V3 N035 15 1.53
R20 N028 CMRA 1Meg
R21 CMRA MID 1
C3 N028 CMRA 1.592n
R22 N043 CMRB 1Meg
R23 CMRB MID 1
C4 N043 CMRB 1.592n
G5 MID N016 N015 MID 1µ
R25 N016 MID 1Meg
C6 N016 MID 7.958f
G6 MID N017 N016 MID 1µ
R26 N017 MID 1Meg
C7 N017 MID 7.958f
ISY 14 15 3.6m
R27 14 N052 32.86k
R28 N052 15 32.86k
L1 N018 N019 100p
R31 N019 N029 10k
R32 N029 N022 10k
R33 N029 N037 5k
GM1 N015 MID N003 0 1
A1 N054 N055 0 0 0 _COMP COMP 0 SCHMITT Vt=0 Vh=10m Trise=50n Vlow=-1 Vhigh=1
S1 N057 N044 COMP 0 SO
C9 COMP 0 1p Rpar=1G
C10 _COMP 0 1p Rpar=1G
C11 N044 N057 10f
G_ECMA MID N028 N021 MID 3.162k
R1 N028 MID 1m
G_ECMB MID N043 N046 MID 3.162k
R2 N043 MID 1m
E1 N013 N012 CMRA MID 1
E2 N041 N040 CMRB MID 1
Vosa N014 N013 50µ
Vosb N042 N041 50µ
C12 N052 0 1
R3 MID 0 1Meg
C13 MID 0 1n
G4 MID N018 N017 MID {1/Ro}
R4 N018 MID {Ro}
DOP1 Vsatp N019 DO
DON1 N019 Vsatn DO
R5 Vsatp MID 1m
R29 Vsatn MID 1m
C15 N019 Vsatp 1f
C16 N019 Vsatn 1f
C17 Vsatp MID 1n
C18 Vsatn MID 1n
G7 MID Vsatp N026 MID 1k
G8 MID Vsatn N027 MID 1k
B1 N026 14 I={Sat} Rpar=1k
B2 15 N027 I={Sat} Rpar=1k
R43 N002 14 {Rin}
R30 N007 3 {Rin}
R38 N012 1 {Rin}
R39 N025 2 {Rin}
R40 N034 6 {Rin}
R41 N040 4 {Rin}
R42 N048 5 {Rin}
R37 N054 8 {Rin}
R44 N055 7 {Rin}
R45 N057 15 {Rin}
R46 12 N004 {Rin}
R47 16 N019 {Rin}
R48 9 N022 {Rin}
R49 10 N029 {Rin}
R50 11 N037 {Rin}
R51 13 N044 {Rin}
.model QP PNP(BF=500)
.model QN NPN(BF=500)
.model DZ D(BV=50)
.model DX D
.model DO D(Vfwd=1k Vrev=0 Revepsilon=0.1 Ron=1m Noiseless)
.model SO SW(Ron=1G Roff=1m Vt=500m Vh=-100m Noiseless)
.param Ro=100
.param Sat=1.9m
.param Rin=1u
.ends AD630
