* Copyright (c) 1998-2024 Analog Devices, Inc.  All rights reserved.
*
.subckt AD8139 1 2 3 4 5 6 7
Q_Q1 N023 2 N012 0 _Q1IN
Q_Q2 N022 N017 N012 0 _Q1IN
Q_Q3 N012 N003 4 0 _Q1IN
Q_Q4 N003 N003 4 0 _Q1IN
Q_Q7 N026 N002 4 0 _Q1IN
Q_Q8 N002 N002 4 0 _Q1IN
Q_Q5 N039 3 N026 0 _Q2PCM
Q_Q6 N040 N036 N026 0 _Q2PCM
Q_Q9 4 N005 6 0 _Q3N
Q_Q11 4 N004 7 0 _Q3N
Q_Q10 5 N038 6 0 _Q4P
Q_Q12 5 N037 7 0 _Q4P
C_C1 VCM N020 305p
C_C3 VCM N033 305p
C_C4 0 VCM 207p
C_Cin 2 N017 1.2p
C_Ccmrr N036 N032 2.5p
R_R1 5 N023 10k
R_R2 5 N022 10k
R_R3 VCM N020 1.08Meg
R_R4 5 N003 180k
R_R5 VCM N033 1.08Meg
R_R6 5 N039 10k
R_R7 5 N040 10k
R_R8 VCM 0 1.08Meg
R_R9 N036 VCM 200
R_R10 4 3 600k
V_VR11 N020 N021 0
V_VR12 N033 N034 0
V_VR13 N019 N013 0
V_VR14 N030 N029 0
R_R15 VCM 6 500
R_R16 7 VCM 500
R_Ricc 5 4 1.666k
R_Rcmrr N032 2 5k
V_V4 N011 N019 -2m
V_V6 4 N006 0.95
V_V7 4 N007 0.95
V_V8 5 N043 -0.95
V_V9 5 N042 -0.95
V_V11 4 N008 0.95
V_V12 5 N041 -0.95
V_V15 N010 N030 -2m
V_Vos 1 N017 150µ
G_G3 0 VCM N039 N040 -30m
D_D1 N020 N007 DIOD
D_D2 N043 N020 DIOD
D_D3 N033 N006 DIOD
D_D4 N042 N033 DIOD
D_D5 VCM N008 DIOD
D_D6 N041 VCM DIOD
D_D7 N019 N038 DIOD
D_D8 N005 N011 DIOD
D_D9 N030 N037 DIOD
D_D10 N004 N010 DIOD
R_X1R1 N018 N009 1Meg
R_X1R2 N009 N013 1Meg
C_X1C N013 N009 0.3f
R_X2R1 N027 N028 1Meg
R_X2R2 N028 N029 1Meg
C_X2C N029 N028 0.3f
I_I1 N002 5 100µ
I_I2 N003 5 112µ
I_I3 4 N005 1m
I_I4 N038 5 1m
I_I5 4 N004 1m
I_I6 N037 5 1m
G_G1 VCM N020 N023 N022 110m
G_G4 VCM N033 N023 N022 -110m
E_E1 0 N018 N021 0 1
E_E3 0 N027 N034 0 1
E_E2 N013 0 0 N009 1Meg
E_E4 N029 0 0 N028 1Meg
.model DIOD D IS=6.2f
.model _Q1IN PNP BF=33 RE=1.71k
.model _Q2PCM PNP BF=33 RE=232
.model _Q3N NPN BF=100 NF=0.8 RE=0
.model _Q4P PNP BF=100 NF=0.8 RE=0.5
.ends AD8139
