* Copyright (c) 1998-2024 Analog Devices, Inc.  All rights reserved.
*
.subckt AD8561 1 2 3 4 5 6 7 8
Q1 N033 N026 N023 0 PIX
Q2 N016 2 N023 0 PIX
Ibias 3 N023 800µ
RC1 N033 4 1k
RC2 N016 4 1k
CL1 N033 N016 1p
CIN 1 2 3p
VCM1 3 N020 1
D1 N023 N020 DX
B_EOS N026 1 V=1m*V(CMR,MID)
B_EREF MID 0 V=500m*V(3)+500m*V(4)
RREF MID 0 100k
B_ECM1 N017 MID V=500m*V(1,MID)+500m*V(2,MID)
RCM1 N017 CMR 10k
RCM2 CMR MID 1
CCM1 N017 CMR 15.9n
RX 5 6 100k
E1 COMP MID N033 N016 1
R2 N019 N012 1
C3 N012 MID 10p
E2 N014 MID N012 MID 1
R3 N012 N014 500
B_GSY1 3 N030 I=4m-260u*V(3,4)
B_GSY2 N030 4 I=3.7m-600u*V(3,4)
RSY N030 6 10
G2 MID N002 N012 MID 250m
R1 N002 MID 1k
C1 N002 MID 1p
E3 N005 0 3 0 1
E4 N030 0 6 0 1
V1 N005 N009 800m
V2 N024 N030 800m
D2 N002 N009 DX
D3 N024 N002 DX
Q3 3 N008 N011 0 NOX
Q4 N027 N032 6 0 NOX
RB1 N007 N008 200
RB2 N031 N032 200
CB1 3 N008 10p
CB2 N032 6 100p
RO1 N011 N018 1
D4 N018 7 DX
RO2 N027 7 500
EO1 N005 N007 N002 6 1
EO2 N031 6 N002 6 1
Q5 3 N004 N006 0 NOX
Q6 N025 N029 6 0 NOX
RB3 N003 N004 200
RB4 N028 N029 200
CB3 3 N004 10p
CB4 N029 6 100p
RO3 N006 N010 1
D6 N010 8 DX
RO4 N025 8 500
EO3 N003 6 N002 6 1
EO4 N005 N028 N002 6 1
A1 COMP 0 0 LATCH 0 0 N019 0 SAMPLEHOLD
A3 5 6 0 0 0 LATCH 0 0 SCHMITT Vt=1.65 Vh=10m Trise=10n
C2 LATCH 0 10p Rpar=1G
.model PIX PNP (BF=100, Is=0.1f)
.model NOX NPN (Bf=100, Vaf=130, Is=10f)
.model DX D (Is=0.1f)
.ends AD8561
