* Copyright (c) 1998-2024 Analog Devices, Inc.  All rights reserved.
*
.subckt ADA4870 1 2 3 4 5 6
Rinp 1 MID {Rincm} Noiseless
Rinn 2 MID {Rincm} Noiseless
Cinp MID 1 {Cincmp}
Cinn 2 MID {Cincmn}
R4 N026 N018 {Rs} Noiseless
C4 Clamp MID 1.1p
C5 N028 MID {Cfp1}
C6 N029 MID {Cfp1}
C7 N030 MID {Cfp1}
C8 N031 MID {Cfp1}
C9 N032 MID {Cfp1}
C10 N033 MID {Cfp1}
C11 N034 MID {Cfp1}
B1 MID Clamp I=Uplim(Dnlim(200u* V(ZoT,MID), {Isink}, 1u), {Isrc}, 1u)
R15 N016 N015 {R2x_Avo} Noiseless
R16 N015 N019 {R1x_Avo} Noiseless
Rx1 N027 N019 {Rx_Avo} Noiseless
Cx1 N027 MID {Cx_Avo}
G10 MID N016 N027 N015 1Meg
R17 MID N016 1 Noiseless
G11 MID N019 Clamp MID 1
C16 N041 MID {Cfp2}
G12 MID N041 N035 MID 1m
C17 N042 MID {Cfp2}
G13 MID N042 N041 MID 1m
C18 N043 MID {Cfp2}
G14 MID N043 N042 MID 1m
G15 MID N044 N043 MID 1m
G16 MID N045 N044 MID 1m
G17 MID N046 N045 MID 1m
Rx VO N047 {Rx_Zo} Noiseless
Rdummy VO MID {Rdummy_Zo} Noiseless
G18 MID N036 N046 VO {G1_Zo}
R27 N036 N037 {R1a_Zo} Noiseless
R28 N037 MID {R2a_Zo} Noiseless
G19 MID N040 N037 MID {G2_Zo}
C22 N037 N036 {C1a_Zo}
B2 MID N047 I=Uplim(Dnlim({G4_Zo}* V(ZoF,MID), {Izn}, 25m), {Izp}, 25m)
R30 N040 ZoF {R1d_Zo} Noiseless
R31 ZoF MID {R2d_Zo} Noiseless
C23 ZoF N040 {C1d_Zo}
G20 MID N026 N039 MID 1k
R33 N026 MID 1m Noiseless
G21 MID ZoT N026 N018 97.81m
C1 ZoT MID 1f
G1 MID N028 N016 MID 1m
G2 MID N029 N028 MID 1m
G3 MID N030 N029 MID 1m
G4 MID N031 N030 MID 1m
G5 MID N032 N031 MID 1m
G6 MID N033 N032 MID 1m
G7 MID N034 N033 MID 1m
G8 MID N035 N034 MID 1m
C2 N002 N001 {C1a_CMR}
G9 MID N001 1 MID {G1_CMR}
R19 N001 MID 1 Noiseless
R42 N002 N001 {R1a_CMR} Noiseless
R43 N002 MID {R2a_CMR} Noiseless
R44 N003 N004 {R1b_CMR} Noiseless
R45 N004 MID {R2b_CMR} Noiseless
G22 MID CMR N004 MID {G2_CMR}
C3 N004 N003 {C1b_CMR}
R46 N003 MID 1 Noiseless
G23 MID N003 N002 MID 1
R47 CMR MID 1 Noiseless
G25 N020 N021 CMR MID 1m
R49 N021 N020 1k Noiseless
G26 MID N024 N023 MID 1k
R50 N024 MID 1m Noiseless
C24 N010 N009 {C1a_PSRn}
G27 MID N009 4 MID {G1_PSRn}
R51 N009 MID 1 Noiseless
R52 N010 N009 {R1a_PSRn} Noiseless
R53 N010 MID {R2a_PSRn} Noiseless
C25 N012 N011 {C1b_PSRn}
R54 N012 MID {R2b_PSRn} Noiseless
R55 N012 N011 {R1b_PSRn} Noiseless
G28 MID N013 N012 MID {G2_PSRn}
R56 N013 MID 1 Noiseless
G29 MID N011 N010 MID 1
R57 N011 MID 1 Noiseless
C26 N014 N013 {C1c_PSRn}
R58 N014 MID {R2c_PSRn} Noiseless
R59 N014 N013 {R1c_PSRn} Noiseless
G30 MID PSRn N014 MID {G3_PSRn}
R60 PSRn MID 1 Noiseless
C27 N006 N005 {C1a_PSRp}
G31 MID N005 3 MID {G1_PSRp}
R61 N005 MID 1 Noiseless
R62 N006 N005 {R1a_PSRp} Noiseless
R63 N006 MID {R2a_PSRp} Noiseless
C28 N008 N007 {C1b_PSRp}
R64 N008 MID {R2b_PSRp} Noiseless
R65 N008 N007 {R1b_PSRp} Noiseless
G32 MID N007 N006 MID 1
R66 N007 MID 1 Noiseless
G33 MID PSRp N008 MID {G2_PSRp}
R67 PSRp MID 1 Noiseless
G34 N024 N025 PSRp PSRn 1m
R68 N025 N024 1k Noiseless
C30 N024 MID 1f
G35 0 Vcc_Int N055 0 1
G36 0 Vee_Int N063 0 1
R69 Vcc_Int 0 1 Noiseless
R70 Vee_Int 0 1 Noiseless
R71 N050 Vcc_Int 1Meg Noiseless
R72 N050 Vee_Int 1Meg Noiseless
C31 N050 0 1
E1 MID 0 N050 0 1
R73 MID 0 1Meg Noiseless
C32 Vcc_Int 0 1n
C33 Vee_Int 0 1n
R74 N055 3 1µ
R75 N063 4 1µ
A1 MID MID MID MID MID MID N059 MID OTA G=10u Iout=1m Vhigh=1k Vlow=-1k En={fA}/(freq**{M})
R76 N059 MID 100k Noiseless
A2 MID N059 MID MID MID MID Vnoise MID OTA G=10u Iout=1m Vhigh=1k Vlow=-1k En={BB}
R77 Vnoise MID 100k Noiseless
G37 N021 N022 Vnoise MID 1m
R78 N022 N021 1k Noiseless
A3 MID MID MID MID MID MID Inoisep MID OTA G=10u Iout=1m Vhigh=1k Vlow=-1k En={BBip} Enk={fCip}
R79 Inoisep MID 100k Noiseless
A4 MID MID MID MID MID MID N067 MID OTA G=10u Iout=1m Vhigh=1k Vlow=-1k En={fAin}/(freq**{Min})
R80 N067 MID 100k Noiseless
A5 MID N067 MID MID MID MID Inoisen MID OTA G=10u Iout=1m Vhigh=1k Vlow=-1k En={BBin}
R81 Inoisen MID 100k Noiseless
G38 0 N068 Inoisen MID 1
R82 N068 N069 1 Noiseless
Vm2 N069 0 0
G39 0 N064 Inoisep MID 1
R83 N064 N065 1 Noiseless
Vm1 N065 0 0
Finp 1 MID Vm1 1
Finn 2 MID Vm2 1
Bibp 1 MID I={Ibpa}+ {Ibpb}*Temp
B4 2 MID I={Ibna}+ {Ibnb}*Temp
BVos N022 N023 I=1m*({Vosa}+{Vosb}*Temp+ {Vosc}*Pwr(Temp,2)+ {Vosd}*Pwr(Temp,3)+ {Vose}*Pwr(Temp,4))
R84 N023 N022 1k Noiseless
B3 0 Iq_on I={Iqona}+{Iqonb}*Temp+ {Iqonc}*Pwr(Temp,2)+ {Iqond}*Pwr(Temp,3)
C14 Iq_on 0 1n Rpar=1
B5 0 Iq_off I={Iqoffa}+{Iqoffb}*Temp+ {Iqoffc}*Pwr(Temp,2)+ {Iqoffd}*Pwr(Temp,3)+ {Iqoffe}*Pwr(Temp,4)
C15 Iq_off 0 1n Rpar=1
Biq N055 N063 I=If(V(EN,MID)>0.5, V(Iq_on),V(Iq_off))
D1 CMp N039 DO
D2 N039 CMn DO
I1 3_BUF CMp {1k*Vcmmax}
R87 3_BUF CMp 1m
C34 3_BUF CMp 1n
I2 4_BUF CMn {1k*Vcmmin}
R88 4_BUF CMn 1m
C35 4_BUF CMn 1n
G40 MID N039 N025 MID 1µ
G41 0 4_BUF N063 0 1k
G42 0 3_BUF N055 0 1k
R89 4_BUF 0 1m Noiseless
R90 3_BUF 0 1m Noiseless
C36 4_BUF 0 1n
C37 3_BUF 0 1n
G43 MID Vs N055 N063 1m
R91 Vs MID 1k Noiseless
A6 Vs MID MID MID MID MID VminGD MID SCHMITT Vt={Vsmin-10m} Vh=10m Trise=5n
A7 Vs MID MID MID MID VmaxGD MID MID SCHMITT Vt={Vsmax+10m} Vh=10m Trise=5n
A8 VminGD MID SDgd MID VmaxGD MID EN MID AND Trise=5n
R92 EN MID 1G Noiseless
R93 VmaxGD MID 1G Noiseless
R94 MID VminGD 1G Noiseless
DOP1 Vsatp VO DO
DON1 VO Vsatn DO
C38 VO Vsatp 1f
C39 VO Vsatn 1f
R85 Satn 4 1k
C40 Satn 4 1n
R95 Satp 3 1k
C41 Satp 3 1n
G44 MID Vsatp Satp MID 1k
R96 Vsatp MID 1m
G45 MID Vsatn Satn MID 1k
R97 Vsatn MID 1m
C42 Vsatp MID 1n
C43 Vsatn MID 1n
B6 Satp 3 I=1m*Uplim(Dnlim(({Vsatpa}+{Vsatpb}*V(Vimon,MID)+ {Vsatpc}*Pwr(V(Vimon,MID),2)+{Vsatpd}*Pwr(V(Vimon,MID),3)+ {Vsatpe}*Pwr(V(Vimon,MID),4)+{Vsatpf}*Pwr(V(Vimon,MID),5)), {Vsatpa}, 1m), 5, 0.1)
B7 4 Satn I=1m*Uplim(Dnlim(({Vsatna}+{Vsatnb}*-V(Vimon,MID)+ {Vsatnc}*Pwr(-V(Vimon,MID),2)+{Vsatnd}*Pwr(-V(Vimon,MID),3)+ {Vsatne}*Pwr(-V(Vimon,MID),4)+{Vsatnf}*Pwr(-V(Vimon,MID),5)), {Vsatna}, 1m), 5, 0.1)
R98 Vimon MID 1k
C44 Vimon MID 10p
C45 VO MID 2f
B8 MID Vimon I=1m*I(Rs)
Rs N048 5 1m
S1 3 VO VO 3 ESDO
S2 VO 4 4 VO ESDO
G46 MID N051 ORp MID 1k
G47 MID N053 ORn MID 1k
DGP N051 N052 DG
R99 N051 MID 1m
R100 N053 MID 1m
I3 N061 ORn {1m*ORn}
R101 ORn N061 1k
I4 N060 ORp {1m*ORp}
R102 ORp N060 1k
C46 ORp N060 1p
C47 ORn N061 1p
DGN N052 N053 DG
Rgr Clamp N052 1m
G48 MID N060 VO MID 1k
R103 N060 MID 1m
G49 MID N061 VO MID 1k
R104 N061 MID 1m
SZO1 N036 N037 OL 0 ZO
B9 0 Igr I=1m*abs(I(Rgr)) Rpar=1k Cpar=10p
A9 Igr 0 0 0 0 0 OL 0 SCHMITT Vt=50u Vh=50u Trise=10n
C49 OL 0 1p Rpar=1G
S3 N048 VO EN MID SDN
S4 MID N039 EN MID 1M
S5 MID ZoT EN MID 1K
S6 MID Clamp EN MID 12M
S7 MID N019 EN MID 1O
S8 MID N028 EN MID 1K
S9 MID N029 EN MID 1K
S10 MID N030 EN MID 1K
S11 MID N031 EN MID 1K
S12 MID N032 EN MID 1K
S13 MID N033 EN MID 1K
S14 MID N034 EN MID 1K
S15 MID N035 EN MID 1K
S16 MID N041 EN MID 1K
S17 MID N042 EN MID 1K
S18 MID N043 EN MID 1K
S19 MID N044 EN MID 1K
S20 MID N045 EN MID 1K
S21 MID N046 EN MID 1K
S22 MID N036 EN MID 1O
S23 MID N040 EN MID 1O
S24 MID N047 EN MID 1O
A10 6 4 MID MID MID MID SDgd MID SCHMITT Vt={SDVt} Vh={SDVh} Trise={2*SDton}
C48 SDgd MID 10p Rpar=1G Noiseless
Bisd 6 MID I=If(V(SDgd,MID)>0.5, {SDIon},{SDIoff})
G50 MID N020 1 MID 1m
S25 MID N020 EN MID 1K
S26 N018 2 EN MID SDN
S27 N056 N048 EN MID _SDN
R1 N056 MID 10k Noiseless
C13 N056 N057 90p
C12 N035 MID {Cfp1}
C20 N044 MID {Cfp2}
C21 N045 MID {Cfp2}
C29 N046 MID {Cfp2}
R2 N058 N057 2
L1 N058 MID 11n
B10 N055 0 I=Dnlim(I(Rs),0,1u)
B11 N063 0 I=Uplim(I(Rs),0,1u)
.param fp1=758Meg fp2=888Meg
.param Cfp1={1 / (2 * pi * fp1 * 1k)}
.param Cfp2={1 / (2 * pi * fp2 * 1k)}
.param Isrc=2.84m Isink={-Isrc}
.param Rx_Avo=1k
.param R2x_Avo=10k
.param fzx_Avo=225Meg
.param fpx_Avo=500Meg
.param Cx_Avo={1/(2*pi*Rx_Avo*fpx_Avo)}
.param R1x_Avo={(fzx_Avo*R2x_Avo)/fpx_Avo}
.param beta_Zo=1.12
.param Rx_Zo = {100 * Zo_max}
.param Rdummy_Zo = {10 * Zo_max}
.param G1_Zo={Rx_Zo/(Zo_dc*beta_Zo)}
.param Zo_dc=150
.param Zo_max={Zo_dc}
.param R1a_Zo=10k
.param fz1_Zo=12.5k
.param fp1_Zo=480k
.param C1a_Zo = {1 / (2 * pi * R1a_Zo * fz1_Zo)}
.param R2a_Zo = {R1a_Zo/ ((2 * pi * fp1_Zo * C1a_Zo
+* R1a_Zo) - 1)}
.param actual1_Zo = {R2a_Zo / (R1a_Zo + R2a_Zo)}
.param G2_Zo = {1/actual1_Zo}
.param R1d_Zo=10k
.param fz4_Zo=1G
.param fp4_Zo=100G
.param C1d_Zo = {1 / (2 * pi * R1d_Zo * fz4_Zo)}
.param R2d_Zo = {R1d_Zo/ ((2 * pi * fp4_Zo * C1d_Zo
+* R1d_Zo) - 1)}
.param actual4_Zo = {R2d_Zo / (R1d_Zo + R2d_Zo)}
.param G4_Zo = {1/actual4_Zo}
.param Rincm=2Meg Rs=12.5
.param Cincmn=2.4p Cincmp=0.75p
.param gain_CMR = {pow(10, (-Rej_dc_CMR/20))}
.param C1a_CMR = {1 / (2 * pi * R1a_CMR * fz1_CMR)}
.param R2a_CMR = {R1a_CMR/ ((2 * pi * fp1_CMR * C1a_CMR
+* R1a_CMR) - 1)}
.param actual1_CMR = {R2a_CMR / (R1a_CMR + R2a_CMR)}
.param G1_CMR = {gain_CMR/actual1_CMR}
.param Rej_dc_CMR=60.4
.param R1a_CMR=100Meg
.param fz1_CMR=140k
.param fp1_CMR=45k
.param R1b_CMR=1Meg
.param fz2_CMR=270k
.param fp2_CMR=20Meg
.param C1b_CMR={1 / (2 * pi * R1b_CMR * fz2_CMR)}
.param R2b_CMR = {R1b_CMR/ ((2 * pi * fp2_CMR * C1b_CMR
+* R1b_CMR) - 1)}
.param actual2_CMR = {R2b_CMR / (R1b_CMR + R2b_CMR)}
.param G2_CMR= {1/actual2_CMR}
.param gain_PSRn = {pow(10, (-Rej_dc_PSRn/20))}
.param C1a_PSRn = {1 / (2 * pi * R1a_PSRn * fz1_PSRn)}
.param R2a_PSRn = {R1a_PSRn/ ((2 * pi * fp1_PSRn * C1a_PSRn
+* R1a_PSRn) - 1)}
.param actual1_PSRn = {R2a_PSRn / (R1a_PSRn + R2a_PSRn)}
.param G1_PSRn = {gain_PSRn/actual1_PSRn}
.param Rej_dc_PSRn=63.2
.param R1a_PSRn=1Meg
.param fz1_PSRn=41k
.param fp1_PSRn=25k
.param C1b_PSRn = {1 / (2 * pi * R1b_PSRn * fz2_PSRn)}
.param R2b_PSRn = {R1b_PSRn/ ((2 * pi * fp2_PSRn * C1b_PSRn
+* R1b_PSRn) - 1)}
.param actual2_PSRn = {R2b_PSRn / (R1b_PSRn + R2b_PSRn)}
.param G2_PSRn = {1/actual2_PSRn}
.param R1b_PSRn=100k
.param fz2_PSRn=540k
.param fp2_PSRn=20Meg
.param C1c_PSRn = {1 / (2 * pi * R1c_PSRn * fz3_PSRn)}
.param R2c_PSRn = {R1c_PSRn/ ((2 * pi * fp3_PSRn * C1c_PSRn
+* R1c_PSRn) - 1)}
.param actual3_PSRn = {R2c_PSRn / (R1c_PSRn + R2c_PSRn)}
.param G3_PSRn = {1/actual3_PSRn}
.param R1c_PSRn=100k
.param fz3_PSRn=5Meg
.param fp3_PSRn=20Meg
.param gain_PSRp = {pow(10, (-Rej_dc_PSRp/20))}
.param C1a_PSRp = {1 / (2 * pi * R1a_PSRp * fz1_PSRp)}
.param R2a_PSRp = {R1a_PSRp/ ((2 * pi * fp1_PSRp * C1a_PSRp
+* R1a_PSRp) - 1)}
.param actual1_PSRp = {R2a_PSRp / (R1a_PSRp + R2a_PSRp)}
.param G1_PSRp = {gain_PSRp/actual1_PSRp}
.param Rej_dc_PSRp=67.4
.param R1a_PSRp=100k
.param fz1_PSRp=35k
.param fp1_PSRp=10k
.param C1b_PSRp = {1 / (2 * pi * R1b_PSRp * fz2_PSRp)}
.param R2b_PSRp = {R1b_PSRp/ ((2 * pi * fp2_PSRp * C1b_PSRp
+* R1b_PSRp) - 1)}
.param actual2_PSRp = {R2b_PSRp / (R1b_PSRp + R2b_PSRp)}
.param G2_PSRp = {1/actual2_PSRp}
.param R1b_PSRp=100k
.param fz2_PSRp={fz1_PSRp}
.param fp2_PSRp=25Meg
.param BB=2n fC=100 M=0.54 fA={BB*(fC**M)}
.param BBip=4.18p fCip=850
.param BBin=46.2p fCin=40
.param Min=0.53 fAin={BBin*(fCin**Min)}
.param Ibpa=9.9u Ibpb=-22.5n
.param Ibna=-10.7u Ibnb=-26n
.param Iscp=1.2 Iscn=-1.2
.param Vosa=-22.85m Vosb=-12.9u
.param Vosc=391n Vosd=-5.35n Vose=32.5p
.param Vcmmin=2 Vcmmax=-2
.param Vsmin=10 Vsmax=42
.param Izp={Iscp*Rx_Zo} Izn={Iscn*Rx_Zo}
.param ORp={Izp+Vsmax} ORn={Izn-Vsmax}
.param SDVt=1 SDVh=0.1
.param SDIon=110u SDIoff=-50u
.param SDton=250n
.param Iqona=31.76m Iqonb=39.5u Iqonc=-470.6n Iqond=3.06n
.param Iqoffa=705u Iqoffb=772.3n Iqoffc=26.74n Iqoffd=-522p Iqoffe=3.18p
.model DG D(Vfwd={-2*ORn} Vrev=0 Revepsilon=0.5 Ron=1m Noiseless)
.model DO D(Vfwd=1k Vrev=0 Revepsilon=0.1 Ron=1m Noiseless)
.model ESDO SW(Ron=50 Roff=1G Vt=0.5 Vh=-0.1 Vser=0.6
+Ilimit=4m Lser=1n Noiseless)
.model SDN SW(Ron=10m Roff=10G Vt=0.5 Vh=-0.1 Noiseless)
.model _SDN SW(Ron=10G Roff=10m Vt=0.5 Vh=-0.1 Noiseless)
.model ZO SW(Ron=10m Roff=10Meg Vt=500m Vh=-100m Noiseless)
.model 1O SW(Ron=1 Roff=1u Vt=500m Vh=-100m Noiseless)
.model 1K SW(Ron=1k Roff=1u Vt=500m Vh=-100m Noiseless)
.model 1M SW(Ron=1Meg Roff=1u Vt=500m Vh=-100m Noiseless)
.model 12M SW(Ron=12Meg Roff=1u Vt=500m Vh=-100m Noiseless)
.param Vsatpa=1.4 Vsatpb=2.014 Vsatpc=-8.06 Vsatpd=23.3 Vsatpe=-29.8 Vsatpf=13.8
.param Vsatna=1.45 Vsatnb=2.52 Vsatnc=-9.22 Vsatnd=28.8 Vsatne=-37.9 Vsatnf=19
.ends ADA4870
