* Copyright (c) 1998-2023 Analog Devices, Inc.  All rights reserved.
*
.subckt ADA4896-2 1 2 3 4 5
C1 Clamp MID {Cfp1}
B1 MID Clamp I=Uplim(Dnlim({Avo2/1Meg}* V(Avo1,MID), {Isink}, 5m), {Isrc}, 5m)
G2 0 Vcc_Int N036 0 1
G3 0 Vee_Int N040 0 1
R6 Vcc_Int 0 1 Noiseless
R7 Vee_Int 0 1 Noiseless
R8 N035 Vcc_Int 1Meg Noiseless
R9 N035 Vee_Int 1Meg Noiseless
C2 N035 0 1
E1 MID 0 N035 0 1
R10 MID 0 1Meg Noiseless
Cinp MID Inp1 {Ccm}
Cinn Inn1 MID {Ccm}
Cdiff Inp1 Inn1 {Cdiff}
Rinn Inn1 MID {Rcm} Noiseless
Rinp MID Inp1 {Rcm} Noiseless
C14 Vcc_Int 0 1n
C15 Vee_Int 0 1n
R1 Inp1 1 {Rser} Noiseless
R2 Inn1 2 {Rser} Noiseless
Rdiff Inp1 Inn1 {Rdiff} Noiseless
G21 N013 N014 N030 N029 1m
R59 N014 N013 1k Noiseless
C27 N027 N028 {C1a_PSRp}
G22 MID N028 Vcc_Int MID {G1_PSRp}
R60 N028 MID 1 Noiseless
R61 N027 N028 {R1a_PSRp} Noiseless
R62 N027 MID {R2a_PSRp} Noiseless
C28 N025 N026 {C1b_PSRp}
R63 N025 MID {R2b_PSRp} Noiseless
R64 N025 N026 {R1b_PSRp} Noiseless
G23 MID N026 N027 MID 1
R66 N026 MID 1 Noiseless
G24 MID N030 N025 MID {G2_PSRp}
R67 N030 MID 1 Noiseless
C29 N020 N019 {C1a_PSRn}
G25 MID N019 Vee_Int MID {G1_PSRn}
R68 N019 MID 1 Noiseless
R70 N020 N019 {R1a_PSRn} Noiseless
R71 N020 MID {R2a_PSRn} Noiseless
G26 MID N013 N008 MID 1k
R72 MID N013 1m Noiseless
G27 MID Inp2 N014 MID 1m
R73 MID Inp2 1k Noiseless
C30 N002 N001 {C1a_CMR}
R58 N001 MID 1 Noiseless
R74 N002 N001 {R1a_CMR} Noiseless
R77 N002 MID {R2a_CMR} Noiseless
G31 MID N001 Inp1 MID {G1_CMR}
G32 N007 N008 N002 MID 1m
R82 N008 N007 1k Noiseless
R134 N006 N005 1k Noiseless
B12 N005 N006 I=1m*({Vos+Drift* (Temp-27)})
R135 N007 N006 1k Noiseless
C19 5 MID 2f
C61 Avo1 MID 1e-18
R15 N021 N022 {R1b_PSRn} Noiseless
R16 N022 MID {R2b_PSRn} Noiseless
G10 MID N023 N022 MID {G2_PSRn}
C6 N022 N021 {C1b_PSRn}
R17 N023 MID 1 Noiseless
R25 N023 N024 {R1c_PSRn} Noiseless
R26 N024 MID {R2c_PSRn} Noiseless
G11 MID N029 N024 MID {G3_PSRn}
C20 N024 N023 {C1c_PSRn}
R27 N029 MID 1 Noiseless
G12 MID N021 N020 MID 1
R28 N021 MID 1 Noiseless
R3 E_n MID 100k Noiseless
A9 MID MID MID MID MID MID E_n MID OTA G=10u Iout=1m En={En} Enk={Enk} Vhigh=1k Vlow=-1k
G4 N006 N007 E_n MID 1m
A10 MID MID MID MID MID MID N037 MID OTA G=10u Iout=1m Vhigh=1k Vlow=-1k En={fAi}/(freq**{Mi})
R4 N037 MID 100k Noiseless
A14 MID N037 MID MID MID MID N038 MID OTA G=10u Iout=1m Vhigh=1k Vlow=-1k En={BBi}
R12 N038 MID 100k Noiseless
G15 0 N039 N038 MID 1
RI_np 0 N039 1 Noiseless
A15 MID MID MID MID MID MID N041 MID OTA G=10u Iout=1m Vhigh=1k Vlow=-1k En={fAi}/(freq**{Mi})
R30 N041 MID 100k Noiseless
A16 MID N041 MID MID MID MID N042 MID OTA G=10u Iout=1m Vhigh=1k Vlow=-1k En={BBi}
R31 N042 MID 100k Noiseless
G16 0 N043 N042 MID 1
I2 Inn1 MID {Ib-Ios}
B2 Inp1 MID I={Ib+Ibdrift* (Temp-27)}
I1 N036 N040 {Iq_on}
R32 Avo1 MID 1Meg Noiseless
R33 Clamp MID 1Meg Noiseless
G7 MID Avo1 Inp2 Inn2 100µ
C8 MID 1 10f
R24 N015 MID 1Meg Noiseless
G5 MID N015 Clamp MID 1µ
C13 N015 MID {Cfp2}
R29 N009 MID 1
R34 N009 N010 {R1a_Avo} Noiseless
R35 N010 MID {R2a_Avo} Noiseless
G13 MID N011 N010 MID {G1_Avo}
C22 N010 N009 {C1a_Avo}
G17 MID N009 N016 MID 1
R38 N011 MID 1 Noiseless
R39 N004 MID 1
R40 N011 N012 {R1b_Avo} Noiseless
R41 N012 MID {R2b_Avo} Noiseless
G18 MID N004 N012 MID {G2_Avo}
C23 N012 N011 {C1b_Avo}
R44 N016 MID 1Meg Noiseless
G19 MID N016 N015 MID 1µ
C25 N016 MID {Cfp3}
R47 Zo_in N003 {R2x_Avo} Noiseless
R50 N003 N004 {R1x_Avo} Noiseless
Rx1 N017 N004 {Rx_Avo} Noiseless
Cx1 N017 MID {Cx_Avo}
G1 MID Zo_in N017 N003 1Meg
R5 MID Zo_in 1 Noiseless
R18 N036 3 1µ Noiseless
R20 N040 4 1µ Noiseless
RI_nn 0 N043 1 Noiseless
DOP Vsatp VO DO
G6 MID Vsatp Satp MID 1k
R22 Vsatp MID 1m
G8 MID Vsatn Satn MID 1k
R23 Vsatn MID 1m
C4 VO Vsatp 1f
C9 VO Vsatn 1f
C10 Vsatp MID 1n
C11 Vsatn MID 1n
B3 Satp Vcc_intC I=1m*Dnlim(Mp*(V(Vimon, MID))+OSp,OSp,1u)
R36 Satp Vcc_intC 1k
C16 Satp Vcc_intC 1n
B4 Vee_intC Satn I=1m*Table(-V(Vimon,MID), 5m, 38m, 45.91m, -480m)
R37 Satn Vee_intC 1k
C17 Satn Vee_intC 1n
R11 Vimon MID 1k
C18 Vimon MID 10p
B5 MID Vimon I=1m*I(Rs)
Bsrc N036 0 I=Dnlim(I(Rs), 0,1u)
Bsink N040 0 I=Uplim(I(Rs), 0,1u)
Rs VO 5 1m
G29 MID N032 N031 MID 1k
G30 MID N033 N034 MID 1k
D3 N032 Clamp DO
D4 Clamp N033 DO
R49 N032 MID 1m
R52 N033 MID 1m
B6 VO N031 I=1m*{OR} Rpar=1k Cpar=1n
B7 VO N034 I=1m*{-OR} Rpar=1k Cpar=1n
Rx VO N018 {Rx_Zo} Noiseless
Rdummy VO MID {Rdummy_Zo} Noiseless
R42 N018 MID 1 Noiseless
B8 MID N018 I=Uplim(Dnlim({G1_Zo}* V(Zo_in,VO), {Izon}, 25m), {Izop}, 25m)
S1 3 5 5 3 ESDO
S2 5 4 4 5 ESDO
D1 CMp Inp2 DO
D2 Inp2 CMn DO
I3 3 CMp {1k*Vcm_max}
R19 3 CMp 1m
C5 3 CMp 1n
I4 4 CMn {1k*Vcm_min}
R21 4 CMn 1m
C7 4 CMn 1n
C3 MID 2 10f
B9 Inp1 MID I=I(RI_np)
B10 Inn1 MID I=I(RI_nn)
R13 N005 MID 1m Noiseless
C12 N005 MID 1p
G9 MID N005 Inp1 MID 1k
R14 Inn2 MID 1m Noiseless
C21 Inn2 MID 1p
G14 MID Inn2 Inn1 MID 1k
G20 0 Vcc_IntC N036 0 0.806
G28 0 Vee_IntC N040 0 0.684
R43 Vcc_IntC 0 1 Noiseless
R45 Vee_IntC 0 1 Noiseless
C24 Vcc_IntC 0 1n
C26 Vee_IntC 0 1n
DON VO Vsatn DO
.param Vos=-35.3u Drift=0.2u
.param Ib=-11u Ios=-25.6n
.param Ibdrift=3n
.param Vcm_min=0.1 Vcm_max=-0.9
.param Iscp=135m Iscn=-135m
.param Iq_on=3m
.param Izop={Rx_zo*Iscp} Izon={Rx_zo*Iscn}
.model LIM D(Vfwd=1n Vrev=1n Ron=1m Roff=1m Ilimit={Iscp} Revilimit={-Iscn} Epsilon=1u Noiseless)
.model DO D(Vfwd=1k Vrev=0 Revepsilon=0.1 Ron=15 Roff=45k Noiseless)
.model DG D(Vfwd=1k Vrev=0 Revepsilon=0.5 Ron=15 Noiseless)
.model ESDO SW(Ron=50 Roff=1G Vt=0.5 Vh=-0.1 Vser=0.6 Ilimit=4m Lser=1n Noiseless)
.param gain_PSRp = {pow(10, (-Rej_dc_PSRp/20))}
.param C1a_PSRp = {1 / (2 * pi * R1a_PSRp * fz1_PSRp)}
.param R2a_PSRp = {R1a_PSRp/ ((2 * pi * fp1_PSRp * C1a_PSRp
+* R1a_PSRp) - 1)}
.param actual1_PSRp = {R2a_PSRp / (R1a_PSRp + R2a_PSRp)}
.param G1_PSRp = {gain_PSRp/actual1_PSRp}
.param Rej_dc_PSRp=125
.param R1a_PSRp=100k
.param fz1_PSRp=11k
.param fp1_PSRp=65Meg
.param C1b_PSRp = {1 / (2 * pi * R1b_PSRp * fz2_PSRp)}
.param R2b_PSRp = {R1b_PSRp/ ((2 * pi * fp2_PSRp * C1b_PSRp
+* R1b_PSRp) - 1)}
.param actual2_PSRp = {R2b_PSRp / (R1b_PSRp + R2b_PSRp)}
.param G2_PSRp = {1/actual2_PSRp}
.param R1b_PSRp=100k
.param fz2_PSRp=900k
.param fp2_PSRp={fp1_PSRp}
.param gain_PSRn = {pow(10, (-Rej_dc_PSRn/20))}
.param C1a_PSRn = {1 / (2 * pi * R1a_PSRn * fz1_PSRn)}
.param R2a_PSRn = {R1a_PSRn/ ((2 * pi * fp1_PSRn * C1a_PSRn
+* R1a_PSRn) - 1)}
.param actual1_PSRn = {R2a_PSRn / (R1a_PSRn + R2a_PSRn)}
.param G1_PSRn = {gain_PSRn/actual1_PSRn}
.param Rej_dc_PSRn=121
.param R1a_PSRn=1Meg
.param fz1_PSRn=1k
.param fp1_PSRn=90Meg
.param gain_CMR = {pow(10, (-Rej_dc_CMR/20))}
.param C1a_CMR = {1 / (2 * pi * R1a_CMR * fz1_CMR)}
.param R2a_CMR = {R1a_CMR/ ((2 * pi * fp1_CMR * C1a_CMR
+* R1a_CMR) - 1)}
.param actual1_CMR = {R2a_CMR / (R1a_CMR + R2a_CMR)}
.param G1_CMR = {gain_CMR/actual1_CMR}
.param Rej_dc_CMR=120
.param R1a_CMR=100Meg
.param fz1_CMR=2.5k
.param fp1_CMR=105Meg
.param Avo=109.4
.param SRp=138 SRn={-SRp}
.param fp1=390 fp2=12Meg fp3=90Meg
.param Rser=1m
.param Ccm=3p Rcm=10Meg
.param Cdiff=11p Rdiff=10k
.param R1b_PSRn=1Meg
.param fz2_PSRn=18k
.param fp2_PSRn=125k
.param C1b_PSRn={1 / (2 * pi * R1b_PSRn * fz2_PSRn)}
.param R2b_PSRn = {R1b_PSRn/ ((2 * pi * fp2_PSRn * C1b_PSRn
+* R1b_PSRn) - 1)}
.param actual2_PSRn = {R2b_PSRn / (R1b_PSRn + R2b_PSRn)}
.param G2_PSRn= {1/actual2_PSRn}
.param R1c_PSRn=1Meg
.param fz3_PSRn=99G
.param fp3_PSRn=100G
.param C1c_PSRn={1 / (2 * pi * R1c_PSRn * fz3_PSRn)}
.param R2c_PSRn = {R1c_PSRn/ ((2 * pi * fp3_PSRn * C1c_PSRn
+* R1c_PSRn) - 1)}
.param actual3_PSRn = {R2c_PSRn / (R1c_PSRn + R2c_PSRn)}
.param G3_PSRn= {1/actual3_PSRn}
.param En=1.03n Enk=45
.param BBi=2.72p fCi=105 Mi=.55 fAi={BBi*(fCi**Mi)}
.param Avo2_dB = {Avo-40+1}
.param Avo2 = {pwr(10, (Avo2_dB)/20)}
.param Cfp1={1 / (2 * pi * fp1 * 1Meg)}
.param Cfp2={1 / (2 * pi * fp2 * 1Meg)}
.param Cfp3={1 / (2 * pi * fp3 * 1Meg)}
.param Isrc = {Cfp1 * SRp * 1Meg} Isink = {Cfp1 * SRn * 1Meg}
.param R1a_Avo=1Meg
.param fz1_Avo=15Meg
.param fp1_Avo=400Meg
.param C1a_Avo = {1 / (2 * pi * R1a_Avo * fz1_Avo)}
.param R2a_Avo = {R1a_Avo/ ((2 * pi * fp1_Avo * C1a_Avo
+* R1a_Avo) - 1)}
.param actual1_Avo = {R2a_Avo / (R1a_Avo + R2a_Avo)}
.param G1_Avo={1/actual1_Avo}
.param R1b_Avo=1Meg
.param fz2_Avo=110Meg
.param fp2_Avo=100G
.param C1b_Avo = {1 / (2 * pi * R1b_Avo * fz2_Avo)}
.param R2b_Avo = {R1b_Avo/ ((2 * pi * fp2_Avo * C1b_Avo
+* R1b_Avo) - 1)}
.param actual2_Avo = {R2b_Avo / (R1b_Avo + R2b_Avo)}
.param G2_Avo={1/actual2_Avo}
.param Rx_Avo=1k
.param R2x_Avo=10k
.param fpx_Avo=99G
.param fzx_Avo=370Meg
.param Cx_Avo={1/(2*pi*Rx_Avo*fpx_Avo)}
.param R1x_Avo={(fzx_Avo*R2x_Avo)/fpx_Avo}
.param Mp=5.43 OSp=13.06m
.param Mn=2.99 OSn=15m
.param OR=13
.param beta_Zo=1.13
.param Rx_Zo = {100 * Zo_max}
.param Rdummy_Zo = {10 * Zo_max}
.param G1_Zo={Rx_Zo/(Zo_dc*beta_Zo)}
.param Zo_dc=20
.param Zo_max={Zo_dc}
.ends ADA4896-2
