* Copyright (c) 1998-2023 Analog Devices, Inc.  All rights reserved.
*
.subckt ADA4807-4 1 2 3 4 5
C1 Clamp MID {Cfp1}
B1 MID Clamp I=Uplim(Dnlim({Aol2/1Meg}* V(Aol1,MID), {Isink}, 10m), {Isrc}, 10m)
A1 Inn2 Inp2 MID MID MID MID Aol1 MID OTA G=100u Iout=1m Vhigh=1k Vlow=-1k
G2 0 Vcc_Int 3 0 1
G3 0 Vee_Int 4 0 1
R6 Vcc_Int 0 1 Noiseless
R7 Vee_Int 0 1 Noiseless
R8 N033 Vcc_Int 1Meg Noiseless
R9 N033 Vee_Int 1Meg Noiseless
C2 N033 0 1
E1 MID 0 N033 0 1
R10 MID 0 1Meg Noiseless
Cinp MID Inp1 {Ccm}
Cinn Inn1 MID {Ccm}
Cdiff Inp1 Inn1 {Cdiff}
Rinn Inn1 MID {Rcm} Noiseless
Rinp MID Inp1 {Rcm} Noiseless
G14 MID Inn2 Inn1 MID 1k
R43 MID Inn2 1m Noiseless
C12 Inn2 MID 1p
C14 Vcc_Int 0 1n
C15 Vee_Int 0 1n
S3 3 N008 N008 3 ESDI
S4 3 Inn2 Inn2 3 ESDI
S5 N008 4 4 N008 ESDI
S6 Inn2 4 4 Inn2 ESDI
R1 Inp1 1 {Rser} Noiseless
R2 Inn1 2 {Rser} Noiseless
Rdiff Inp1 Inn1 {Rdiff} Noiseless
B9 Vsatp2 Vcc_Int I=1m*Max(Ap+((Bp*(V(Vimon,MID)**Cp))/((Dp**Cp)+(V(Vimon,MID)**Cp))),40u)
R75 Vsatp2 Vcc_Int 1k
C39 Vsatp2 Vcc_Int {CVsat}
B17 Vee_Int Vsatn1 I=1m*Max(Mn*(-V(Vimon,MID))+OSn,40u)
R76 Vsatn1 Vee_Int 1k
B18 Vee_Int Vsatn2 I=1m*(An+((Bn*(-V(Vimon,MID)**Cn))/((Dn**Cn)+(-V(Vimon,MID)**Cn))))
R96 Vsatn2 Vee_Int 1k
B19 MID Satn I=1m*IF(-V(Vimon,MID)>66m, V(Vsatn2,MID), V(Vsatn1,MID))
R125 Satn MID 1k
C52 Satn MID 1n
B22 Vsatp1 Vcc_Int I=1m*Max(Mp*(V(Vimon,MID))+OSp,40u)
R126 Vsatp1 Vcc_Int 1k
B26 MID Satp I=1m*IF(V(Vimon,MID)>38m, V(Vsatp2,MID),V(Vsatp1,MID))
R127 Satp MID 1k
C54 Satp MID 1n
R13 Vimon MID 1k
C3 Vimon MID 10p
S1 3 5 5 3 ESDO
S2 5 4 4 5 ESDO
G9 MID Vs 3 4 1m
R32 Vs MID 1k Noiseless
A3 Vs MID MID MID MID MID VminGD MID SCHMITT Vt={Vsmin-10m} Vh=10m Trise=5n
A4 Vs MID MID MID MID VmaxGD MID MID SCHMITT Vt={Vsmax+10m} Vh=10m Trise=5n
A5 VminGD MID MID MID VmaxGD MID EN MID AND Trise=5n
R33 EN MID 1G Noiseless
R34 VmaxGD MID 1G Noiseless
R35 MID VminGD 1G Noiseless
G21 N017 N018 N030 N024 1µ
R59 N018 N017 1Meg Noiseless
C27 N027 N028 {C1a_PSRp}
G22 MID N028 VCC_Int MID {G1_PSRp}
R60 N028 MID 1 Noiseless
R61 N027 N028 {R1a_PSRp} Noiseless
R62 N027 MID {R2a_PSRp} Noiseless
C28 N025 N026 {C1b_PSRp}
R63 N025 MID {R2b_PSRp} Noiseless
R64 N025 N026 {R1b_PSRp} Noiseless
G23 MID N026 N027 MID 1
R66 N026 MID 1 Noiseless
G24 MID N030 N025 MID {G2_PSRp}
R67 N030 MID 1 Noiseless
C29 N024 N023 {C1a_PSRn}
G25 MID N023 VEE_Int MID {G1_PSRn}
R68 N023 MID 1 Noiseless
R70 N024 N023 {R1a_PSRn} Noiseless
R71 N024 MID {R2a_PSRn} Noiseless
G26 MID N017 N007 MID 1k
R72 MID N017 1m Noiseless
G27 MID Inp2 N018 MID 1m
R73 MID Inp2 1k Noiseless
C30 N002 N001 {C1a_CMR}
R58 N001 MID 1 Noiseless
R74 N002 N001 {R1a_CMR} Noiseless
R77 N002 MID {R2a_CMR} Noiseless
R78 N003 N004 {R1b_CMR} Noiseless
R79 N004 MID {R2b_CMR} Noiseless
G20 MID N005 N004 MID {G2_CMR}
C31 N004 N003 {C1b_CMR}
R80 N003 MID 1 Noiseless
G29 MID N003 N002 MID 1
R81 N005 MID 1 Noiseless
G31 MID N001 Inp1 MID {G1_CMR}
G32 N006 N007 N005 MID 1µ
R82 N007 N006 1Meg Noiseless
G33 MID N008 Inp1 MID 1k
R83 MID N008 1m Noiseless
C32 N008 MID 1p
B2 0 VICM I=1m*((V(1,MID)+V(2,MID))/2) Rpar=1k Cpar=1n
A8 3 VICM MID MID MID NPN PNP MID SCHMITT Vt={1.5-50m} Vh=50m Tau=1u
BIbp Inp1 MID I={Ib+Ibdrift*(Temp-27)}+V(NPN,MID)*{Ib2}
BIbn Inn1 MID I={Ib-Ios+(Ibdrift-Iosdrift)*(Temp-27)}+V(NPN,MID)*{Ib2-Ios2}
A9 MID MID MID MID MID MID N038 MID OTA G=10u Iout=1m Vhigh=1k Vlow=-1k En={Enp} Enk={Enkp}
R86 N040 MID 1 Noiseless
R87 N042 N043 {R1a_E_n} Noiseless
R88 N043 MID {R2a_E_n} Noiseless
G34 MID N044 N043 MID {G1_E_n}
C33 N043 N042 {C1a_E_n}
R89 N044 MID 1 Noiseless
R90 N044 N045 {R1a_E_n} Noiseless
R91 N045 MID {R2a_E_n} Noiseless
G35 MID N047 N045 MID {1u*G1_E_n}
C34 N045 N044 {C1a_E_n}
R92 N047 MID 1Meg Noiseless
C35 N047 MID 2.5f
G36 MID N048 N047 MID 1µ
R93 N048 MID 1Meg Noiseless
G37 MID E_np N048 MID 1µ
R94 E_np MID 1Meg Noiseless
R95 N038 MID 100k Noiseless
R97 N038 N039 {R2b_E_n} Noiseless
R98 N039 N049 {R1b_E_n} Noiseless
C36 MID N049 {C1b_E_n}
G38 MID N040 N039 MID 1
C37 N048 MID 2.5f
C38 E_np MID 2.5f
R99 N040 N041 {R1c_E_n} Noiseless
R100 N041 MID {R2c_E_n} Noiseless
G39 MID N042 N041 MID {G3_E_n}
C40 N041 N040 {C1c_E_n}
R101 N042 MID 1 Noiseless
A10 MID MID MID MID MID MID N051 MID OTA G=10u Iout=1m Vhigh=1k Vlow=-1k En={Enn} Enk={Enkn}
R102 N051 MID 100k Noiseless
R103 N051 N052 {R1d_E_n} Noiseless
R104 N052 MID {R2d_E_n} Noiseless
G40 MID N053 N052 MID {G4_E_n}
C41 N052 N051 {C1d_E_n}
R105 N053 MID 1 Noiseless
R106 N053 N054 {R1d_E_n} Noiseless
R107 N054 MID {R2d_E_n} Noiseless
C42 N054 N053 {C1d_E_n}
G42 MID N055 N054 MID {G4_E_n}
R108 N055 MID 1 Noiseless
R109 N055 N056 {R1d_E_n} Noiseless
R110 N056 MID {R2d_E_n} Noiseless
C43 N056 N055 {C1d_E_n}
G43 MID N058 N056 MID {1u*G4_E_n}
R111 N058 MID 1Meg Noiseless
C44 N058 MID 2.5f
G44 MID N059 N058 MID 1µ
R112 N059 MID 1Meg Noiseless
G45 MID E_nn N059 MID 1µ
R113 E_nn MID 1Meg Noiseless
C45 N059 MID 2.5f
C46 E_nn MID 2.5f
R134 N009 N008 1Meg Noiseless
B12 N008 N009 I=1u*({Vos+Drift*(Temp-27)} +V(NPN,MID)*{Vos2})
R135 N006 N009 1Meg Noiseless
B13 N009 N006 I=1u*(IF(V(PNP,MID)>0.5, V(E_np,MID), V(E_nn,MID)))
S8 MID Aol1 EN MID ENA
S9 MID Clamp EN MID ENA
S10 MID N021 EN MID ENZ
BIq 3 4 I=IF(V(EN,MID)>0.5, {Iq_on}, {Iq_off})
C19 5 MID 2f
C49 Vsatp1 Vcc_Int {CVsat}
C50 Vsatn2 Vee_Int {CVsat}
C53 Vsatn1 Vee_Int {CVsat}
DOP1 Vsatp VO DO
DON1 VO Vsatn DO
G48 MID Vsatp Satp MID 1k
R11 Vsatp MID 1m
G49 MID Vsatn Satn MID 1k
R49 Vsatn MID 1m
C56 VO Vsatp 1f
C57 VO Vsatn 1f
C59 Vsatp MID 1n
C60 Vsatn MID 1n
C61 Aol1 MID 1f
G1 MID N021 N020 MID {1/Ro}
G5 MID N010 N019 MID 1
R15 N010 MID 1 Noiseless
R16 N010 N011 {R1a_Aol} Noiseless
R17 N011 MID {R2a_Aol} Noiseless
G6 MID N012 N011 MID {G1_Aol}
C7 N011 N010 {C1a_Aol}
R18 N012 MID 1 Noiseless
R19 N012 N013 {R1b_Aol} Noiseless
R20 N013 MID {R2b_Aol} Noiseless
C8 N013 N012 {C1b_Aol}
G7 MID N014 N013 MID {G2_Aol}
R21 N014 MID 1 Noiseless
G8 MID N019 Clamp MID 1µ
R22 N019 MID 1Meg Noiseless
C9 N019 MID {Cfp2}
G4 MID N031 ORp MID 1k
V1 ORp VO {OR}
G10 MID N032 ORn MID 1k
V2 ORn VO {-OR}
D2 N031 Clamp DG
D3 Clamp N032 DG
R3 N031 MID 1m
R4 N032 MID 1m
DOI VO 5 LIM
COI 5 VO 1p
B3 MID Vimon I=1m*I(DOI)
B8 3 4 I=I(DOI)
G12 0 3_BUF 3 0 1k
G15 0 4_BUF 4 0 1k
R5 3_BUF 0 1m Noiseless
R12 4_BUF 0 1m Noiseless
C5 3_BUF 0 1n
C6 4_BUF 0 1n
D4 CMp Inp2 DO
D5 Inp2 CMn DO
I1 3_BUF CMp {1k*Vcm_max}
R23 3_BUF CMp 1m
C10 3_BUF CMp 1n
I2 4_BUF CMn {1k*Vcm_min}
R24 4_BUF CMn 1m
C11 4_BUF CMn 1n
C13 PNP MID 1n Rpar=1G
C16 NPN MID 1n Rpar=1G
A6 MID N046 MID MID MID MID MID MID OTA G=0 In=Table(freq, 1, 25p, 2, 18.5p, 3, 15.5p, 4, 13.8p, 5, 12.5p, 10, 9.7p, 20, 7.5p, 50, 5.3p, 100, 4p, 140, 3.4p, 225, 2.6p, 350, 2.1p, 600, 1.65p, 800, 1.45p, 1k, 1.35p, 2k, 1.1p, 3k, 1p, 6k, 880f, 10k, 820f, 100k, 740f, 1Meg, 720f)
A7 MID N057 MID MID MID MID MID MID OTA G=0 In=Table(freq, 1, 18p, 2, 13.5p, 3, 11p, 4, 9.7p, 5, 9p, 10, 6.7p, 20, 5p, 50, 3p, 75, 2.3p, 100, 2p, 140, 1.65p, 225, 1.3p, 350, 1.1p, 600, 950f, 800, 860f, 1k, 800f, 2k, 620f, 3k, 580f, 6k, 520f, 10k, 480f, 100k, 440f, 1Meg, 430f)
VI_np1 N046 MID 0
A11 MID N050 MID MID MID MID MID MID OTA G=0 In=Table(freq, 1, 25p, 2, 18.5p, 3, 15.5p, 4, 13.8p, 5, 12.5p, 10, 9.7p, 20, 7.5p, 50, 5.3p, 100, 4p, 140, 3.4p, 225, 2.6p, 350, 2.1p, 600, 1.65p, 800, 1.45p, 1k, 1.35p, 2k, 1.1p, 3k, 1p, 6k, 880f, 10k, 820f, 100k, 740f, 1Meg, 720f)
VI_np2 N050 MID 0
VI_nn1 N057 MID 0
A12 MID N063 MID MID MID MID MID MID OTA G=0 In=Table(freq, 1, 18p, 2, 13.5p, 3, 11p, 4, 9.7p, 5, 9p, 10, 6.7p, 20, 5p, 50, 3p, 75, 2.3p, 100, 2p, 140, 1.65p, 225, 1.3p, 350, 1.1p, 600, 950f, 800, 860f, 1k, 800f, 2k, 620f, 3k, 580f, 6k, 520f, 10k, 480f, 100k, 440f, 1Meg, 430f)
VI_nn2 N063 MID 0
B4 Inp1 MID I=IF(V(PNP,MID)>0.5, I(VI_np1), I(VI_nn1))
B5 Inn1 MID I=IF(V(PNP,MID)>0.5, I(VI_np2), I(VI_nn2))
C17 2 MID 1f
C18 MID 1 1f
L2 N021 VO {Lo}
C24 VO MID {Co}
R41 N014 N015 {R1b_Aol} Noiseless
R42 N015 MID {R2b_Aol} Noiseless
C26 N015 N014 {C1b_Aol}
G28 MID N020 N015 MID {G2_Aol}
R44 N020 MID 1 Noiseless
.param Enp=4n Enkp=11
.param Enn=5.9n Enkn=380
.param Inn=0.4p Inkp=2.1k
.param Vos=-7.33u Drift=0.7u
.param Vos2=108.63u Ib2=1.654u Ios2=25n
.param Ib=-1.2u Ios=9.15n
.param Ibdrift=2.5n Iosdrift=70p
.param Vcm_min=-0.2 Vcm_max=0.2
.param Vsmin=2.7 Vsmax=11
.param Iscp=80m Iscn=-80m
.param Iq_on=1m Iq_off=4.8u
.param ENVt=3.5 ENVh=200m
.param ENTon=1.3u ENToff=265n
.model DPD D(Ron=1Meg Roff=1G Ilimit=466n Revilimit=3n epsilon=1 Vfwd=1 Noiseless)
.model DO D(Vfwd=1k Vrev=0 Revepsilon=0.1 Ron=1m Noiseless)
.model DG D(Vfwd=20k Vrev=0 Revepsilon=0.5 Ron=1m Noiseless)
.model LIM D(Vfwd=1n Vrev=1n Ron=1m Roff=1m Ilimit={Iscp} Revilimit={-Iscn} Epsilon=1u Noiseless)
.model ESDI SW(Ron=50 Roff=1T Vt=0.5 Vh=-0.1 Vser=0.1 Noiseless)
.model ESDO SW(Ron=50 Roff=1G Vt=0.5 Vh=-0.1 Vser=0.6 Ilimit=4m Lser=1n Noiseless)
.model OL SW(Ron=10m Roff=1G Vt=500m Vh=-100m Noiseless)
.model ENA SW(Ron=1Meg Roff=1u Vt=500m Vh=-100m Noiseless)
.model ENZ SW(Ron={Ro} Roff=1u Vt=500m Vh=-100m Noiseless)
.param Rser=1u
.param Rcm=45Meg Ccm=1p
.param Rdiff=35k Cdiff=1p
.param Aol2_dB = {Aol_PB-40+1}
.param Aol2 = {pwr(10, (Aol2_dB)/20)}
.param Cfp1={1 / (2 * pi * fp1 * 1Meg)}
.param Cfp2={1 / (2 * pi * fp2 * 1Meg)}
.param Isrc = {Cfp1 * SRp * 1Meg} Isink = {Cfp1 * SRn * 1Meg}
.param Ap=0.181 Bp=2.79 Cp=6.59 Dp=7.77e-2
.param An=0.182 Bn=1.92 Cn=13.8 Dn=8.17e-2
.param Mp=4.9 OSp=17.6m
.param Mn=3.667 OSn=30m
.param gain_PSRp = {pow(10, (-Rej_dc_PSRp/20))}
.param C1a_PSRp = {1 / (2 * pi * R1a_PSRp * fz1_PSRp)}
.param R2a_PSRp = {R1a_PSRp/ ((2 * pi * fp1_PSRp * C1a_PSRp
+* R1a_PSRp) - 1)}
.param actual1_PSRp = {R2a_PSRp / (R1a_PSRp + R2a_PSRp)}
.param G1_PSRp = {gain_PSRp/actual1_PSRp}
.param Rej_dc_PSRp=107
.param R1a_PSRp=1Meg
.param fz1_PSRp=18k
.param fp1_PSRp=10Meg
.param C1b_PSRp = {1 / (2 * pi * R1b_PSRp * fz2_PSRp)}
.param R2b_PSRp = {R1b_PSRp/ ((2 * pi * fp2_PSRp * C1b_PSRp
+* R1b_PSRp) - 1)}
.param actual2_PSRp = {R2b_PSRp / (R1b_PSRp + R2b_PSRp)}
.param G2_PSRp = {1/actual2_PSRp}
.param R1b_PSRp=1Meg
.param fz2_PSRp=4Meg
.param fp2_PSRp=10Meg
.param gain_PSRn = {pow(10, (-Rej_dc_PSRn/20))}
.param C1a_PSRn = {1 / (2 * pi * R1a_PSRn * fz1_PSRn)}
.param R2a_PSRn = {R1a_PSRn/ ((2 * pi * fp1_PSRn * C1a_PSRn
+* R1a_PSRn) - 1)}
.param actual1_PSRn = {R2a_PSRn / (R1a_PSRn + R2a_PSRn)}
.param G1_PSRn = {gain_PSRn/actual1_PSRn}
.param Rej_dc_PSRn=120
.param R1a_PSRn=1Meg
.param fz1_PSRn=210
.param fp1_PSRn=3Meg
.param gain_CMR = {pow(10, (-Rej_dc_CMR/20))}
.param C1a_CMR = {1 / (2 * pi * R1a_CMR * fz1_CMR)}
.param R2a_CMR = {R1a_CMR/ ((2 * pi * fp1_CMR * C1a_CMR
+* R1a_CMR) - 1)}
.param actual1_CMR = {R2a_CMR / (R1a_CMR + R2a_CMR)}
.param G1_CMR = {gain_CMR/actual1_CMR}
.param Rej_dc_CMR=110
.param R1a_CMR=1Meg
.param fz1_CMR=17k
.param fp1_CMR=100k
.param R1b_CMR=1Meg
.param fz2_CMR=150k
.param fp2_CMR=11Meg
.param C1b_CMR = {1 / (2 * pi * R1b_CMR * fz2_CMR)}
.param R2b_CMR = {R1b_CMR/ ((2 * pi * fp2_CMR * C1b_CMR
+* R1b_CMR) - 1)}
.param actual2_CMR = {R2b_CMR / (R1b_CMR + R2b_CMR)}
.param G2_CMR = {1/actual2_CMR}
.param R1a_E_n=1Meg
.param fz1_E_n=6Meg
.param fp1_E_n=17Meg
.param C1a_E_n = {1 / (2 * pi * R1a_E_n * fz1_E_n)}
.param R2a_E_n = {R1a_E_n/ ((2 * pi * fp1_E_n * C1a_E_n
+* R1a_E_n) - 1)}
.param actual1_E_n = {R2a_E_n / (R1a_E_n + R2a_E_n)}
.param G1_E_n = {1/actual1_E_n}
.param R1b_E_n=1Meg
.param fp2_E_n=700
.param fz2_E_n=825
.param C1b_E_n = {1 / (fz2_E_n * R1b_E_n * 2 * pi)}
.param R2b_E_n = {(1 / (fp2_E_n * C1b_E_n * 2 * pi))
+- R1b_E_n}
.param R1c_E_n=1Meg
.param fz3_E_n=700k
.param fp3_E_n=800k
.param R1d_E_n=1Meg
.param fz4_E_n=12.1Meg
.param fp4_E_n=30Meg
.param C1d_E_n = {1 / (2 * pi * R1d_E_n * fz4_E_n)}
.param R2d_E_n = {R1c_E_n/ ((2 * pi * fp4_E_n * C1d_E_n
+* R1d_E_n) - 1)}
.param actual4_E_n = {R2d_E_n / (R1d_E_n + R2d_E_n)}
.param G4_E_n = {1/actual4_E_n}
.param C1c_E_n = {1 / (2 * pi * R1c_E_n * fz3_E_n)}
.param R2c_E_n = {R1c_E_n/ ((2 * pi * fp3_E_n * C1c_E_n
+* R1c_E_n) - 1)}
.param actual3_E_n = {R2c_E_n / (R1c_E_n + R2c_E_n)}
.param G3_E_n = {1/actual3_E_n}
.param CVsat=10p
.param Aol_PB=125.5 RL_dc=1k
.param SRp=293.4 SRn=-327
.param fp1=110 fp2=10Meg
.param R1a_Aol=1Meg
.param fz1_Aol=22Meg
.param fp1_Aol=1G
.param C1a_Aol = {1 / (2 * pi * R1a_Aol * fz1_Aol)}
.param R2a_Aol = {R1a_Aol/ ((2 * pi * fp1_Aol * C1a_Aol
+* R1a_Aol) - 1)}
.param actual1_Aol = {R2a_Aol / (R1a_Aol + R2a_Aol)}
.param G1_Aol={1/actual1_Aol}
.param R1b_Aol=1Meg
.param fz2_Aol=260Meg
.param fp2_Aol=10G
.param C1b_Aol={1 / (2 * pi * R1b_Aol * fz2_Aol)}
.param R2b_Aol = {R1b_Aol/ ((2 * pi * fp2_Aol * C1b_Aol
+* R1b_Aol) - 1)}
.param actual2_Aol = {R2b_Aol / (R1b_Aol + R2b_Aol)}
.param G2_Aol={1/actual2_Aol}
.param OR=10
.param Ro=45
.param Lo=19n
.param Co=10p
.ends ADA4807-4
