* Copyright (c) 1998-2024 Analog Devices, Inc.  All rights reserved.
*
.subckt ADA4891-4 1 2 3 4 5
C1 Clamp MID {Cfp1}
B1 MID Clamp I=Uplim(Dnlim({Aol2/1Meg}*V(Aol1,MID), {Isink},1m),{Isrc},1m)
G2 0 Vcc_Int N028 0 1
G3 0 Vee_Int N032 0 1
R6 Vcc_Int 0 1 Noiseless
R7 Vee_Int 0 1 Noiseless
R8 N026 Vcc_Int 1Meg Noiseless
R9 N026 Vee_Int 1Meg Noiseless
C2 N026 0 1
R25 Aol2 MID 1Meg Noiseless
G7 MID Aol2 Clamp MID 1µ
C14 Vcc_Int 0 1n
C15 Vee_Int 0 1n
R1 N003 1 {Rser} Noiseless
R82 N032 4 1µ Noiseless
A1 Inn1 Inp1 MID MID MID MID Aol1 MID OTA G=100u Iout=1m Vhigh=1k Vlow=-1k
R47 N028 3 1µ Noiseless
R45 Vimon MID 1k Noiseless
C34 MID 0 1n
C38 Aol2 MID {Cfp2}
DGP N024 Clamp DG
DGN Clamp N025 DG
C19 Satn MID 1n
R21 Satn MID 1k Noiseless
G18 N011 Inp1 N020 N019 1m
R51 Inp1 N011 1k Noiseless
C32 N020 N021 {C1a_PSRp}
G19 MID N021 VCC_Int MID {G1_PSRp}
R52 N021 MID 1 Noiseless
R55 N020 N021 {R1a_PSRp} Noiseless
R56 N020 MID {R2a_PSRp} Noiseless
C33 N019 N018 {C1a_PSRn}
G20 MID N018 VEE_Int MID {G1_PSRn}
R57 N018 MID 1 Noiseless
R58 N019 N018 {R1a_PSRn} Noiseless
R59 N019 MID {R2a_PSRn} Noiseless
R76 N004 N009 1k Noiseless
B17 N009 N004 I=1m*{Vos+Drift* (Temp-27)}
G32 N005 N006 N002 MID 1m
R77 N006 N005 1k Noiseless
R79 N005 N004 1k Noiseless
G33 N004 N005 E_n MID 1m
C39 N002 N001 {C1a_CMR}
G34 MID N001 N003 MID {G1_CMR}
R80 N002 N001 {R1a_CMR} Noiseless
R81 N002 MID {R2a_CMR} Noiseless
R83 N001 MID 1 Noiseless
G35 MID IVR N003 MID 1m
G36 MID Inn1 N023 MID 1k
R84 MID IVR 1k Noiseless
R85 MID Inn1 1m Noiseless
C40 Inn1 MID 1.59n
C41 IVR MID 1.59f
Ibn N023 MID {Ib-Ios}
R2 N023 2 {Rser} Noiseless
Cinp MID N003 {Ccm}
Cinn N023 MID {Ccm}
Rinn N023 MID {Rcm} Noiseless
Rinp MID N003 {Rcm} Noiseless
G28 MID N011 N006 MID 1k
R72 MID N011 1m Noiseless
C42 N011 MID 1.59n
C43 Aol1 MID 1.59e-18
G15 MID N024 ORp MID 1k
G16 MID N025 GRni MID 1k
R11 N024 MID 1m Noiseless
R12 N025 MID 1m Noiseless
R37 ORp N029 1k Noiseless
R44 GRni N030 1k Noiseless
C6 GRni N030 10p
C7 ORp N029 10p
S2 3 VO VO 3 ESDO
S3 VO 4 4 VO ESDO
DOP Vsatp VO DO
DON VO Vsatn DO
G5 MID Vsatp Satp MID 1k
R92 Vsatp MID 1m
G6 MID Vsatn Satn MID 1k
R93 Vsatn MID 1m
C10 Vimon MID 1.59f
S4 3 N009 N009 3 ESDI
S5 3 Inn1 Inn1 3 ESDI
S6 N009 4 4 N009 ESDI
S7 Inn1 4 4 Inn1 ESDI
C9 VO Vsatp 1f
C16 VO Vsatn 1f
C27 Clamp N024 1f
C44 Clamp N025 1f
Cdiff N003 N023 {Cdiff}
C17 Vsatp MID 1n
C23 Vsatn MID 1n
E1 MID 0 N026 0 1
R10 MID 0 1Meg Noiseless
C51 N019 MID 1f
C52 N020 MID 1f
B3 MID CMpi I=1m*(V(3,MID)+{Vcm_max}) Cpar=1n
G17 MID CMp CMpi MID 1k
R53 MID CMp 1m Noiseless
B8 MID CMni I=1m*(V(4,MID)+{Vcm_min}) Cpar=1n
G22 MID CMn CMni MID 1k
R54 MID CMn 1m Noiseless
R62 CMpi MID 1k Noiseless
R88 CMni MID 1k Noiseless
DIP CMp IVR DI
DIN IVR CMn DI
C54 IVR CMn 1f
C48 IVR CMp 1f
G14 MID N009 IVR MID 1k
R14 MID N009 1m Noiseless
C49 N009 MID 1.59n
Rdiff N003 N023 {Rdiff} Noiseless
B2 MID Satp I=1m*Min(V(Vsatp1,MID), V(Vsatp2,MID))
C11 Satp MID 1n
R18 Satp MID 1k Noiseless
R28 N012 MID 1Meg Noiseless
C50 N012 MID {Cfp3}
R29 N013 MID 1Meg Noiseless
G42 MID N013 N012 MID 1µ
C53 N013 MID {Cfp4}
R30 N014 MID 1Meg Noiseless
G43 MID N014 N013 MID 1µ
C55 N014 MID {Cfp5}
R31 N015 MID 1Meg Noiseless
G44 MID N015 N014 MID 1µ
C56 N015 MID {Cfp6}
B6 Vsatp1 Vcc_Int I=1m*Max(Mp1*(V(Vimon,MID))+OSp1,OSp1)
R5 Vsatp1 Vcc_Int 1k
C4 Vsatp1 Vcc_Int 1n
B9 Vsatp2 Vcc_Int I=1m*Max(Mp2*(V(Vimon,MID))+OSp2,OSp1)
R34 Vsatp2 Vcc_Int 1k
C26 Vsatp2 Vcc_Int 1n
A3 MID MID MID MID MID MID E_n MID OTA G=10u Iout=1m Vhigh=1k Vlow=-1k EN=IF(freq>600, freq*Pwr(({A2}+{B2}*Pwr(freq,{C2})),(-1/{C2}))+0.36n, freq*Pwr(({A1}+{B1}*Pwr(freq,{C1})),(-1/{C1})))
R35 E_n MID 100k Noiseless
Rx Zo_out N016 {Rx_Zo} Noiseless
Rdummy Zo_out MID {Rdummy_Zo} Noiseless
B11 MID N016 I=Uplim(Dnlim({G1_Zo}* V(Zo_in,Zo_out), {Izon}, 25m), {Izop}, 25m)
G1 MID N012 Aol2 MID 1µ
Lout Zo_out VO 7n
Cout VO MID 1.3p
R23 N007 MID 9.7724 Noiseless
L1 N007 N008 5.413n
C5 N008 N007 106.103p
G4 MID N007 N015 MID 0.1
G8 MID Zo_in N007 MID 1.0233
R16 Zo_in MID 1 Noiseless
Ibp N003 MID {Ib}
B4 Vee_Int Vsatn1 I=1m*Max(Mn1*(-V(Vimon,MID))+OSn1,OSn1)
R3 Vsatn1 Vee_Int 1k
C3 Vsatn1 Vee_Int 1n
B5 Vee_Int Vsatn2 I=1m*Max(Mn2*(-V(Vimon,MID))+OSn2,OSn1)
R4 Vsatn2 Vee_Int 1k
C8 Vsatn2 Vee_Int 1n
B7 Vee_Int Vsatn3 I=1m*Max(Mn3*(-V(Vimon,MID))+OSn3,OSn1)
R13 Vsatn3 Vee_Int 1k
C12 Vsatn3 Vee_Int 1n
B10 MID Satn I=1m*Max(Min(V(Vsatn1,MID), V(Vsatn2,MID)),V(Vsatn3,MID))
R17 Aol1 MID 1Meg Noiseless
R19 Clamp MID 1Meg Noiseless
R20 N016 MID 1 Noiseless
I2 N028 N032 {Iq_on}
Bsrc N028 0 I=Dnlim(I(Rs), 0,1u)
Bsink N032 0 I=Uplim(I(Rs), 0,1u)
Rs VO 5 1m
B12 MID Vimon I=1m*I(Rs)
G9 MID N029 VO MID 1k
R22 N029 MID 1m
I3 N029 ORp {1m*ORp}
I4 N030 GRni {1m*ORn}
G10 MID N030 VO MID 1k
R24 N030 MID 1m
.param Vos=-675u Drift=6u
+ Ib=252.06p Ios=498.6p
+ Vcm_min=-0.3 Vcm_max=-0.8
+ Vsmin=2.7 Vsmax=5.5
+ Iscp=205m Iscn=-307m
+ Iq_on=4.4m
+ IZop={Rx_Zo*Iscp} IZon={Rx_Zo*Iscn}
+ Izp={Iscp*Rx_Zo} Izn={Iscn*Rx_Zo}
+ ORp={Izp+Vsmax} ORn={Izn-Vsmax}
.model DI D(Vfwd=1k Vrev=0 Revepsilon=0.1 Noiseless)
.model DG D(Vfwd=10k Vrev=0 Revepsilon=0.5 Ron=1m Noiseless )
.model DO D(Vfwd=1k Vrev=0 Revepsilon=0.1 Ron=1m Noiseless)
.model PD D(Ron=0.5 Epsilon=0.1 Noiseless)
.model ESDI SW(Ron=50 Roff=1T Vt=700m Vh=-350m Vser=0.1 Noiseless)
.model ESDO SW(Ron=50 Roff=1G Vt=0.5 Vh=-0.1 Vser=0.6 Ilimit=4m Lser=1n Noiseless)
.model ENA SW(Ron=1Meg Roff=1u Vt=500m Vh=-100m Noiseless)
.model ENZ SW(Ron=1 Roff=1u Vt=500m Vh=-100m Noiseless)
.param Aol2_dB = {Aol_PB-40+1}
.param Aol2 = {pwr(10, (Aol2_dB)/20)}
.param Cfp1={1 / (2 * pi * fp1 * 1Meg)}
.param Cfp2={1 / (2 * pi * fp2 * 1Meg)}
.param Cfp3={1 / (2 * pi * fp3 * 1Meg)}
.param Cfp4={1 / (2 * pi * fp4 * 1Meg)}
.param Cfp5={1 / (2 * pi * fp5 * 1Meg)}
.param Cfp6={1 / (2 * pi * fp6 * 1Meg)}
.param Isrc = {Cfp1 * SRp * 1Meg} Isink = {Cfp1 * SRn * 1Meg}
.param gain_PSRn = {pow(10, (-Rej_dc_PSRn/20))}
.param C1a_PSRn = {1 / (2 * pi * R1a_PSRn * fz1_PSRn)}
.param R2a_PSRn = {R1a_PSRn/ ((2 * pi * fp1_PSRn * C1a_PSRn
+* R1a_PSRn) - 1)}
.param actual1_PSRn = {R2a_PSRn / (R1a_PSRn + R2a_PSRn)}
.param G1_PSRn = {gain_PSRn/actual1_PSRn}
.param gain_PSRp = {pow(10, (-Rej_dc_PSRp/20))}
.param C1a_PSRp = {1 / (2 * pi * R1a_PSRp * fz1_PSRp)}
.param R2a_PSRp = {R1a_PSRp/ ((2 * pi * fp1_PSRp * C1a_PSRp
+* R1a_PSRp) - 1)}
.param actual1_PSRp = {R2a_PSRp / (R1a_PSRp + R2a_PSRp)}
.param G1_PSRp = {gain_PSRp/actual1_PSRp}
.param gain_CMR = {pow(10, (-Rej_dc_CMR/20))}
.param C1a_CMR = {1 / (2 * pi * R1a_CMR * fz1_CMR)}
.param R2a_CMR = {R1a_CMR/ ((2 * pi * fp1_CMR * C1a_CMR
+* R1a_CMR) - 1)}
.param actual1_CMR = {R2a_CMR / (R1a_CMR + R2a_CMR)}
.param G1_CMR = {gain_CMR/actual1_CMR}
.param Aol_PB=83.6
.param SRp=204.1 SRn=-252.2
.param fp1=6.95k fp2=650Meg fp3=800Meg
.param fp4=1.2G fp5=1.5G fp6=1.7G
.param Rser=1m
.param Ccm=2.2p Rcm=5G
.param Cdiff=0.8p Rdiff=10Meg
.param Rej_dc_CMR=88
.param R1a_CMR=1Meg
.param fz1_CMR=27k
.param fp1_CMR=35Meg
.param Rej_dc_PSRp=65
.param R1a_PSRp=1Meg
.param fz1_PSRp=125k
.param fp1_PSRp=16Meg
.param Rej_dc_PSRn=63
.param R1a_PSRn=1Meg
.param fz1_PSRn=250k
.param fp1_PSRn=75Meg
.param A1=-2.5 B1=5.17 C1=77.5m
.param A2=-79.9 B2=54.6 C2=211m
.param beta_Zo=1.13
.param Rx_Zo = {100 * Zo_max}
.param Rdummy_Zo = {10 * Zo_max}
.param G1_Zo={Rx_Zo/(Zo_dc*beta_Zo)}
.param Zo_dc=35.81
.param Zo_max={Zo_dc}
.param Mp1=6.09 OSp1=30m
.param Mn1=5.12 OSn1=4.75m
.param Mp2=6.8 OSp2=-10m
.param Mn2=4.24 OSn2=20m
.param Mn3=8.47 OSn3=-360m
.ends ADA4891-4
