* Copyright (c) 1998-2023 Analog Devices, Inc.  All rights reserved.
*
.subckt ADA4077 1 2 3 4 5
R1 Inn1 2 {Rser} Noiseless
C1 Clamp MID {Cfp1}
B1 MID Clamp I=Uplim(Dnlim({Aol2/1Meg}* V(Aol1,MID), {Isink}-V(OL,MID)* 0.2, 20m), {Isrc}+V(OL,MID)*0.2, 20m)
A1 Inn2 Inp2 MID MID MID MID Aol1 MID OTA G=100u Iout=1m Vhigh=1k Vlow=-1k
G2 0 VCC_Int N046 0 1
G3 0 Vee_Int N059 0 1
R6 VCC_Int 0 1 Noiseless
R7 Vee_Int 0 1 Noiseless
R8 N042 VCC_Int 1Meg Noiseless
R9 N042 Vee_Int 1Meg Noiseless
C2 N042 0 1
E1 MID 0 N042 0 1
R10 MID 0 1Meg Noiseless
R25 Aol2 MID 1Meg Noiseless
C7 Aol2 MID {Cfp2}
G7 MID Aol2 Clamp MID 1µ
Cinp MID Inp1 {Ccm}
Cinn Inn1 MID {Ccm}
Cdiff Inp1 Inn1 {Cdiff}
Rinn Inn1 MID {Rcm} Noiseless
Ibp Inp1 MID {Ib}
Ibn Inn1 MID {Ib-Ios}
R26 N015 N018 1k Noiseless
B3 N018 N015 I=1m*{Vos+Drift* (Temp-25)}
G6 N022 Inp2 N032 N036 1m
R28 Inp2 N022 1k Noiseless
C8 N032 N033 {C1a_PSRp}
G8 MID N033 VCC_Int MID {G1_PSRp}
R29 N033 MID 1 Noiseless
R30 N032 N033 {R1a_PSRp} Noiseless
R31 N032 MID {R2a_PSRp} Noiseless
G12 N016 N017 N007 MID 1m
R39 N017 N016 1k Noiseless
Vimon N014 5 0
BIq N046 N059 I=IF(V(EN,MID)>0.5, {Iq_on},{Iq_off})
G1 MID N018 Inp1 MID 1k
G14 MID Inn2 Inn1 MID 1k
R5 MID N018 1m Noiseless
R43 MID Inn2 1m Noiseless
C12 Inn2 MID 1p
C13 N018 MID 1p
DIP N034 Inp2 DI
DIN Inp2 N035 DI
C14 VCC_Int 0 1n
C15 Vee_Int 0 1n
DOP Vsatp N013 DO
DON N013 Vsatn DO
DGP N038 Clamp DGP
DGN Clamp N039 DGN
S2 Cap2R Cap2L OL MID OL
F1 MID OLp VGP 1m
A4 OLp OLn MID MID MID MID OL MID OR Ref=100u Vh=50u Trise=10n
R44 OLp MID 1k
F2 MID OLn VGN -1m
R45 OLn MID 1k
C16 OLp MID 1n
C17 OLn MID 1n
DOI N013 N014 LIM
COI N014 N013 1p
G15 MID Vsatp Vsatpi MID 1
R48 Vsatp MID 1
C21 Vsatp MID 1n
G16 MID Vsatn Vsatni MID 1
R49 Vsatn MID 1
C22 Vsatn MID 1n
S3 3 N018 N018 3 ESDI
S4 3 Inn2 Inn2 3 ESDI
S5 N018 4 4 N018 ESDI
S6 Inn2 4 4 Inn2 ESDI
C24 N013 Vsatp 1f
C25 N013 Vsatn 1f
S7 3 5 5 3 ESDO
S8 5 4 4 5 ESDO
C26 OL MID 1p
B6 MID N040 I=1m*({Zo_max}* {Iscp}+V(3,MID)) Rpar=1k Cpar=1n
G18 MID GRp N040 MID 1
R51 GRp MID 1
G19 MID GRn N041 MID 1
R52 GRn MID 1
B7 MID N041 I=1m*({Zo_max}* {Iscn}+V(4,MID)) Rpar=1k Cpar=1n
VGP N038 GRp 0
VGN N039 GRn 0
G17 MID Vs 3 4 1m
R50 Vs MID 1k Noiseless
A5 Vs MID MID MID MID MID VminGD MID SCHMITT Vt={Vsmin-50m} Vh=10m Trise=5n
A6 Vs MID MID MID MID VmaxGD MID MID SCHMITT Vt={Vsmax-50m} Vh=10m Trise=5n
A7 VminGD MID MID MID VmaxGD MID EN MID AND Trise=5n
R53 EN MID 1G Noiseless
R54 VmaxGD MID 1G Noiseless
R55 MID VminGD 1G Noiseless
S9 MID Aol1 EN MID ENA
S10 MID Clamp EN MID ENA
Rx N013 N019 {Rx_Zo} Noiseless
Rdummy N013 MID {Rdummy_Zo} Noiseless
G20 MID Cap2L N025 N013 {G1_Zo}
R3 Cap2L MID 1 Noiseless
R4 Cap2L Cap2R {R1a_Zo} Noiseless
R17 Cap2R MID {R2a_Zo} Noiseless
G21 MID N008 Cap2R MID {G2_Zo}
C20 Cap2R Cap2L {C1a_Zo}
R56 N010 MID 1 Noiseless
R57 N010 N011 {R2c_Zo} Noiseless
R58 N011 N023 {R1c_Zo} Noiseless
C23 MID N023 {C1c_Zo}
Gb3 MID N012 N011 MID 1
R59 N019 MID 1 Noiseless
B8 MID N019 I=Uplim(Dnlim({G4_Zo}*V(ZoF,MID), {IZon}, 25m), {IZop}, 25m)
R60 N012 MID 1 Noiseless
R61 N012 ZoF {R1d_Zo} Noiseless
R62 ZoF MID {R2d_Zo} Noiseless
C27 ZoF N012 {C1d_Zo}
R63 N008 MID 1 Noiseless
R64 N008 N009 {R1b_Zo} Noiseless
R65 N009 MID {R2b_Zo} Noiseless
G22 MID N010 N009 MID {G3_Zo}
C28 N009 N008 {C1b_Zo}
R11 N024 MID 1Meg Noiseless
C29 N024 MID {Cfp2}
G24 MID N024 Aol2 MID 1µ
R16 N025 MID 1Meg Noiseless
C30 N025 MID {Cfp2}
G25 MID N025 N024 MID 1µ
C3 N002 N001 {C1a_CMR}
G4 MID N001 Inp1 MID {G1_CMR}
R13 N002 N001 {R1a_CMR} Noiseless
R14 N002 MID {R2a_CMR} Noiseless
R15 N003 N004 {R1b_CMR} Noiseless
R18 N004 MID {R2b_CMR} Noiseless
G5 MID N005 N004 MID {G2_CMR}
C4 N004 N003 {C1b_CMR}
R19 N003 MID 1
G23 MID N003 N002 MID 1
R20 N005 N006 {R1c_CMR} Noiseless
R21 N006 MID {R2c_CMR} Noiseless
G26 MID N007 N006 MID {G3_CMR}
C5 N006 N005 {C1c_CMR}
R22 N005 MID 1 Noiseless
R23 N007 MID 1
R12 N001 MID 1 Noiseless
C6 N027 N026 {C1a_PSRn}
G9 MID N026 VEE_Int MID {G1_PSRn}
R32 N026 MID 1 Noiseless
R33 N027 N026 {R1a_PSRn} Noiseless
R34 N027 MID {R2a_PSRn} Noiseless
C9 N029 N028 {C1b_PSRn}
R35 N028 MID 1 Noiseless
R40 N029 N028 {R1b_PSRn} Noiseless
R41 N029 MID {R2b_PSRn} Noiseless
G10 MID N030 N029 MID {G2_PSRn}
R42 N036 MID 1 Noiseless
G13 MID N028 N027 MID 1
C11 N031 N030 {C1c_PSRn}
R66 N030 MID 1 Noiseless
R67 N031 N030 {R1c_PSRn} Noiseless
R68 N031 MID {R2c_PSRn} Noiseless
G27 MID N036 N031 MID {G3_PSRn}
A8 MID MID MID MID MID MID N053 MID OTA G=10u Iout=1m Vhigh=1k Vlow=-1k En={fA}/(freq**{M})
R36 N047 MID 1 Noiseless
R37 N049 N050 {R1a_E_n} Noiseless
R38 N050 MID {R2a_E_n} Noiseless
G11 MID N051 N050 MID {G1_E_n}
C10 N050 N049 {C1a_E_n}
R69 N051 MID 1 Noiseless
R70 N051 N052 {R1a_E_n} Noiseless
R71 N052 MID {R2a_E_n} Noiseless
G28 MID N055 N052 MID {1u*G1_E_n}
C31 N052 N051 {C1a_E_n}
R72 N055 MID 1Meg Noiseless
C32 N055 MID {CEn}
G29 MID N056 N055 MID 1µ
R73 N056 MID 1Meg Noiseless
G30 MID E_np N057 MID 1µ
R74 E_np MID 1Meg Noiseless
R75 N053 MID 100k Noiseless
G31 MID N047 N054 MID 1
R76 N047 N048 {R1a_E_n} Noiseless
R77 N048 MID {R2a_E_n} Noiseless
G32 MID N049 N048 MID {G1_E_n}
C33 N048 N047 {C1a_E_n}
R78 N049 MID 1 Noiseless
A9 MID N053 MID MID MID MID N054 MID OTA G=10u Iout=1m Vhigh=1k Vlow=-1k En={Enp}
R79 N054 MID 100k Noiseless
C35 E_np MID 15f
G33 MID N057 N056 MID 1µ
R80 N057 MID 1Meg Noiseless
R81 N016 N015 1k Noiseless
G34 N015 N016 E_np MID 1m
B2 MID N043 I=1m*(V(3,MID)+{Vcm_max}) Rpar=1k Cpar=1n
G36 MID CMp N043 MID 1
R24 CMp MID 1
B9 MID N044 I=1m*(V(4,MID)+{Vcm_min}) Rpar=1k Cpar=1n
G37 MID CMn N044 MID 1
R27 CMn MID 1
VIP N034 CMp 0
VIN CMn N035 0
A10 MID MID MID MID MID MID N060 MID OTA G=10u Iout=1m Vhigh=1k Vlow=-1k En={fAi}/(freq**{Mi})
R83 N060 MID 100k Noiseless
A11 MID N060 MID MID MID MID N061 MID OTA G=10u Iout=1m Vhigh=1k Vlow=-1k En={BBi}
R84 N061 MID 100k Noiseless
F3 Inp1 MID V_I_n 1
Gb1 MID N062 N061 MID 1
R85 N063 MID 1 Noiseless
V_I_n N062 N063 0
F4 Inn1 MID V_I_n 1
R86 Vsatp2 3 1k
C37 Vsatp2 3 1n
B10 4 Vsatn1 I=1m*Max(Mn*(-I(Vimon))+OSn,40u)
R87 Vsatn1 4 1k
C38 Vsatn1 4 1n
B11 4 Vsatn2 I=1m*(An+((Bn*(-I(Vimon)**Cn))/((Dn**Cn)+(-I(Vimon)**Cn))))
R88 Vsatn2 4 1k
C39 Vsatn2 4 1n
B12 MID Vsatni I=1m*IF(-I(Vimon)>15m, V(Vsatn2,MID), V(Vsatn1,MID))
R89 Vsatpi MID 1k
C40 Vsatpi MID 1n
B13 Vsatp1 3 I=1m*Max(Mp*(I(Vimon))+OSp,40u)
R90 Vsatp1 3 1k
C41 Vsatp1 3 1n
B14 MID Vsatpi I=1m*IF(I(Vimon)>16m, V(Vsatp2,MID), V(Vsatp1,MID))
R91 Vsatni MID 1k
C42 Vsatni MID 1n
B15 Vsatp2 3 I=1m*Max(Ap+((Bp*(I(Vimon)**Cp))/((Dp**Cp)+(I(Vimon)**Cp))),40u)
G35 MID N022 N017 MID 1k
R46 MID N022 1m Noiseless
Rinp MID Inp1 {Rcm} Noiseless
R2 Inp1 1 {Rser} Noiseless
F5 N046 N059 Vimon 1
C18 N056 MID {CEn}
C19 N057 MID {CEn}
R47 N046 3 1µ
R82 N059 4 1µ
D1 Inp1 Inn1 1N4148_ESD
D2 Inn1 Inp1 1N4148_ESD
.param Vos=-1.94u Drift=0.1u
.param Ib=-0.4n Ios=0.1n
.param Vcm_min=1.2 Vcm_max=-2
.param Vsmin=3 Vsmax=36
.param Iscp=22m Iscn=-22m
.param Iq_on=400u Iq_off=1u
.param IZop={2*Rx_Zo*Iscp} IZon={2*Rx_Zo*Iscn}
.model DI D(Vfwd=1k Vrev=0 Revepsilon=0.1 Noiseless)
.model DO D(Vfwd=1k Vrev=0 Revepsilon=0.1)
.model LIM D(Vfwd=1n Vrev=1n Ron=1m Roff=1m Ilimit={Iscp} Revilimit={-Iscn} Epsilon=1u)
.model DGP D(Vfwd=1k Vrev=0 Revepsilon=0.5)
.model DGN D(Vfwd=1k Vrev=0 Revepsilon=0.5)
.model ESDI SW(Ron=50 Roff=1T Vt=31.6 Vh=-500m Vser=0.1)
.model ESDO SW(Ron=50 Roff=1G Vt=0.5 Vh=-0.1 Vser=0.6 Ilimit=4m Lser=1n)
.model OL SW(Ron=10m Roff=1G Vt=500m Vh=-100m)
.model ENA SW(Ron=1Meg Roff=1u Vt=500m Vh=-100m Noiseless)
.model ENZ SW(Ron=1 Roff=1u Vt=500m Vh=-100m Noiseless)
.model 1N4148_ESD D(Is=2.52n Rs=.568 N=1.752 Cjo=0.1p M=.4 tt=20n)
.param gain_PSRp = {pow(10, (-Rej_dc_PSRp/20))}
.param C1a_PSRp = {1 / (2 * pi * R1a_PSRp * fz1_PSRp)}
.param R2a_PSRp = {R1a_PSRp/ ((2 * pi * fp1_PSRp * C1a_PSRp
+* R1a_PSRp) - 1)}
.param actual1_PSRp = {R2a_PSRp / (R1a_PSRp + R2a_PSRp)}
.param G1_PSRp = {gain_PSRp/actual1_PSRp}
.param beta_Zo=1.14
.param Rx_Zo = {100 * Zo_max}
.param Rdummy_Zo = {10 * Zo_max}
.param G1_Zo={Rx_Zo/(Zo_dc*beta_Zo)}
.param Zo_dc=1.58k
.param Zo_max=1.58k
.param R1a_Zo=10k
.param fz1_Zo=0.96
.param fp1_Zo=9.8
.param C1a_Zo = {1 / (2 * pi * R1a_Zo * fz1_Zo)}
.param R2a_Zo = {R1a_Zo/ ((2 * pi * fp1_Zo * C1a_Zo
+* R1a_Zo) - 1)}
.param actual1_Zo = {R2a_Zo / (R1a_Zo + R2a_Zo)}
.param G2_Zo = {1/actual1_Zo}
.param R1c_Zo=10k
.param fp3_Zo=7.1Meg
.param fz3_Zo=12.5Meg
.param C1c_Zo = {1 / (fz3_Zo * R1c_Zo * 2 * pi)}
.param R2c_Zo = {(1 / (fp3_Zo * C1c_Zo * 2 * pi))
+- R1c_Zo}
.param R1b_Zo=10k
.param fz2_Zo=33.5k
.param fp2_Zo=45.5k
.param C1b_Zo = {1 / (2 * pi * R1b_Zo * fz2_Zo)}
.param R2b_Zo = {R1b_Zo/ ((2 * pi * fp2_Zo * C1b_Zo
+* R1b_Zo) - 1)}
.param actual3_Zo = {R2b_Zo / (R1b_Zo + R2b_Zo)}
.param G3_Zo = {1/actual3_Zo}
.param R1d_Zo=10k
.param fz4_Zo=96Meg
.param fp4_Zo=100G
.param C1d_Zo = {1 / (2 * pi * R1d_Zo * fz4_Zo)}
.param R2d_Zo = {R1d_Zo/ ((2 * pi * fp4_Zo * C1d_Zo
+* R1d_Zo) - 1)}
.param actual4_Zo = {R2d_Zo / (R1d_Zo + R2d_Zo)}
.param G4_Zo = {1/actual4_Zo}
.param Aol_PB=135.06
.param SRp=1.3 SRn=-1.3
.param fp1=0.695 fp2=21.15Meg
.param Rser=500
.param Ccm=5p Rcm=70G
.param Cdiff=3p ;Rdiff=100T
.param Aol2_dB = {Aol_PB-40+1}
.param Aol2 = {pwr(10, (Aol2_dB)/20)}
.param Cfp1={1 / (2 * pi * fp1 * 1Meg)}
.param Cfp2={1 / (2 * pi * fp2 * 1Meg)}
.param Isrc = {Cfp1 * SRp * 1Meg} Isink = {Cfp1 * SRn * 1Meg}
.param gain_CMR = {pow(10, (-Rej_dc_CMR/20))}
.param C1a_CMR = {1 / (2 * pi * R1a_CMR * fz1_CMR)}
.param R2a_CMR = {R1a_CMR/ ((2 * pi * fp1_CMR * C1a_CMR
+* R1a_CMR) - 1)}
.param actual1_CMR = {R2a_CMR / (R1a_CMR + R2a_CMR)}
.param G1_CMR = {gain_CMR/actual1_CMR}
.param Rej_dc_CMR=149.5
.param R1a_CMR=1Meg
.param fz1_CMR=70m
.param fp1_CMR=10
.param R1b_CMR=1Meg
.param fz2_CMR=6k
.param fp2_CMR=200k
.param C1b_CMR = {1 / (2 * pi * R1b_CMR * fz2_CMR)}
.param R2b_CMR = {R1b_CMR/ ((2 * pi * fp2_CMR * C1b_CMR
+* R1b_CMR) - 1)}
.param actual2_CMR = {R2b_CMR / (R1b_CMR + R2b_CMR)}
.param G2_CMR = {1/actual2_CMR}
.param R1c_CMR=1Meg
.param fz3_CMR=300k
.param fp3_CMR=10Meg
.param C1c_CMR = {1 / (2 * pi * R1c_CMR * fz3_CMR)}
.param R2c_CMR = {R1c_CMR/ ((2 * pi * fp3_CMR * C1c_CMR
+* R1c_CMR) - 1)}
.param actual3_CMR = {R2c_CMR / (R1c_CMR + R2c_CMR)}
.param G3_CMR = {1/actual3_CMR}
.param Rej_dc_PSRp=128
.param R1a_PSRp=100Meg
.param fz1_PSRp=1.6
.param fp1_PSRp=4Meg
.param gain_PSRn = {pow(10, (-Rej_dc_PSRn/20))}
.param C1a_PSRn = {1 / (2 * pi * R1a_PSRn * fz1_PSRn)}
.param R2a_PSRn = {R1a_PSRn/ ((2 * pi * fp1_PSRn * C1a_PSRn
+* R1a_PSRn) - 1)}
.param actual1_PSRn = {R2a_PSRn / (R1a_PSRn + R2a_PSRn)}
.param G1_PSRn = {gain_PSRn/actual1_PSRn}
.param Rej_dc_PSRn=128
.param R1a_PSRn=1Meg
.param fz1_PSRn=0.35
.param fp1_PSRn=10
.param C1b_PSRn = {1 / (2 * pi * R1b_PSRn * fz2_PSRn)}
.param R2b_PSRn = {R1b_PSRn/ ((2 * pi * fp2_PSRn * C1b_PSRn
+* R1b_PSRn) - 1)}
.param actual2_PSRn = {R2b_PSRn/ (R1b_PSRn + R2b_PSRn)}
.param G2_PSRn = {1/actual2_PSRn}
.param R1b_PSRn=1Meg
.param fz2_PSRn=950
.param fp2_PSRn=4.1Meg
.param C1c_PSRn = {1 / (2 * pi * R1c_PSRn * fz3_PSRn)}
.param R2c_PSRn = {R1c_PSRn/ ((2 * pi * fp3_PSRn * C1c_PSRn
+* R1c_PSRn) - 1)}
.param actual3_PSRn = {R2c_PSRn/ (R1c_PSRn + R2c_PSRn)}
.param G3_PSRn = {1/actual3_PSRn}
.param R1c_PSRn=1Meg
.param fz3_PSRn=200k
.param fp3_PSRn={fp2_PSRn}
.param R1a_E_n=1Meg
.param fz1_E_n=2.2Meg
.param fp1_E_n=5.2Meg
.param C1a_E_n = {1 / (2 * pi * R1a_E_n * fz1_E_n)}
.param R2a_E_n = {R1a_E_n/ ((2 * pi * fp1_E_n * C1a_E_n
+* R1a_E_n) - 1)}
.param actual1_E_n = {R2a_E_n / (R1a_E_n + R2a_E_n)}
.param G1_E_n = {1/actual1_E_n}
.param Enp=6.9n CEn=22f
.param BB=6.9n fC=2.7 M=0.58 fA={BB*(fC**M)}
.param BBi=0.16p fCi=5 Mi=0.75 fAi={BBi*(fCi**Mi)}
.param Mp=14.12 OSp=0.96
.param Ap=1.08 Bp=1.71 Cp=8.54 Dp=2.2e-2
.param Mn=20 OSn=1
.param An=1.11 Bn=2.33 Cn=6.86 Dn=2.13e-2
.ends ADA4077
