* Copyright (c) 1998-2024 Analog Devices, Inc.  All rights reserved.
*
.subckt ADA4937 1 2 3 4 5 6 7 8 9
I0 3 N022 600µ
Q1 4 N021 N022 0 QX
Vos 1 N021 -1.95m
Dlim+ N005 N006 DX
Vlim+ 3 N006 1.78
Dlim N009 N005 DX
Vlim N009 4 1.78
Dlim- N035 N027 DX
Vlim- N035 4 1.78
Dlim-B N027 N028 DX
Vlim-B 3 N028 1.78
DOCMa N031 N025 DX
VOCMa 3 N025 1.8
DOCMb N034 N031 DX
VOCMb N034 4 1.8
I1 3 N010 600µ
Q2 4 2 N010 0 QX
Cin 1 2 0.7p
C1 N007 N020 160f
C2 MID N020 155f
C3 MID N007 155f
R11 MID N020 250k Noiseless
R12 MID N007 250k Noiseless
GP1 0 N004 N007 MID 1
RP1 N004 0 1 Noiseless
CP1 0 N004 0.1p
GP2 0 N008 N020 MID 1
RP2 N008 0 1 Noiseless
CP2 0 N008 0.1p
D17 N008 N018 DX
VO1 N018 N013 0.177
VO2 N013 N015 0.177
D16 N015 N008 DX
G30 N013 N003 3 N008 91m
G31 N033 N013 N008 4 91m
RO30 N013 N003 11 Noiseless
RO31 N033 N013 11 Noiseless
D17B N004 N017 DX
VO1B N017 N012 0.177
VO2B N012 N014 0.177
D16B N014 N004 DX
G30B N012 N002 3 N004 91m
G31B N032 N012 N004 4 91m
RO30B N012 N002 11 Noiseless
RO31B N032 N012 11 Noiseless
GOCM_A 0 N004 7 0 1
GOCM_B 0 N008 7 0 1
ROCM1 N031 3 400k Noiseless
ROCM2 4 N031 400k Noiseless
VOFFSET N031 7 -1m
G1 N020 N007 N022 N011 5m
Bop_sink 4 0 I=Uplim(I(Rop), 0,1u)
Bop_src 3 0 I=Dnlim(I(Rop), 0,1u)
Bon_sink 4 0 I=Uplim(I(Ron), 0,1u)
Bon_src 3 0 I=Dnlim(I(Ron), 0,1u)
Iq 3 4 39.5m
Rop 5 N012 1m
Ron 6 N013 1m
R16 8 5 1m Noiseless
C6 8 0 1f Rpar=1G
R17 6 9 1m Noiseless
C5 9 0 1f Rpar=1G
R19 N032 4 1m Noiseless
R18 N033 4 1m Noiseless
R20 3 N002 1m Noiseless
R21 3 N003 1m Noiseless
A2 0 0 0 0 0 0 E_n 0 OTA G=10u Iout=1m Vhigh=1k Vlow=-1k En=1.12n Enk=6.5k
R25 E_n 0 100k Noiseless
G12 N010 N011 E_n 0 1k
R26 N011 N010 1m Noiseless
A1 2 0 0 0 0 0 0 0 OTA G=0 In=4p
A3 N021 0 0 0 0 0 0 0 OTA G=0 In=4p
B1 MID 0 V=(V(3)+V(4))/2
R_VBF2 N005 N004 1m
R_VBF1 N027 N008 1m
VSUPP1 N002 N036 10.6
DOVD1 3 N002 DOVD
DOVD2 N036 4 DOVD
.model QX PNP (BF=228 Is=1f KF=10p AF=1.07 Noiseless)
.model DX D(IS=10f Noiseless)
.model DOVD D(IS=1f Noiseless)
.ends ADA4937
