* Copyright (c) 1998-2019 Analog Devices, Inc.  All rights reserved.
*
.subckt AD549 1 2 3 4 5
A1 2 1 0 0 0 0 0 0 OTA g=0 in=.11f ink=1 incm=.0011f incmk=1
M1 3 N005 5 5 N temp=27
M2 4 N005 5 5 P temp=27
C3 3 5 2p
C4 5 4 2p
C6 3 1 .2p Rpar=4000T noiseless
C7 1 4 .2p noiseless Rpar=4000T
C8 2 4 .2p Rpar=4000T noiseless
C9 3 2 .2p Rpar=4000T noiseless
A2 0 N006 M M M M N005 M OTA g=36u Iout=17u en=35n enk=55 Vlow=-1e308 Vhigh=1e308 Cout= 5.5p
D1 N005 5 Y
D6 5 N005 Y
C1 2 1 .8p Rpar=10T noiseless
G1 0 M 3 0 1m
G2 0 M 4 0 1m
R3 M 0 1K noiseless
S1 N005 M 4 3 UVLO
D3 N005 3 X
D4 4 N005 X
B3 0 N004 I=2m*dnlim(uplim(V(1),V(3)-.8,.1), V(4)+3, .1)+100n*V(1)
B4 N004 0 I=2m*dnlim(uplim(V(2),V(3)-1.25,.1), V(4)+3, .1)+100n*V(2)
C12 N004 0 20p Rpar=1K noiseless
C2 N006 0 20p Rpar=1K noiseless
L1 N004 N006 20µ
.model X D(Ron=5K Roff=100G Vfwd=-1.25 epsilon=.1 noiseless)
.model Y D(Ron=5K Roff=1T Vfwd=2.5 epsilon=.1 noiseless)
.model N VDMOS(Vto=-250m Kp=4m Ksubthres=.1 noiseless)
.model P VDMOS(Vto=250m Kp=4m pchan Ksubthres=1. noiseless)
.model UVLO SW(Ron=1K Roff=100G Vt=-3.75 Vh=.25 noiseless)
.ends AD549
*
.subckt AD712 1 2 3 4 5
A1 2 1 0 0 0 0 0 0 OTA g=0 in=.01p ink=10 incm=.001p incmk=10
M1 3 N006 5 5 N temp=27
M2 4 N006 5 5 P temp=27
C3 3 5 2p
C4 5 4 2p
C6 3 1 1.375p Rpar=750G noiseless
A2 0 N005 M M M M N006 M OTA g=130u Isrc=90u Isink=-120u en=16n enk=100 Vlow=-1e308 Vhigh=1e308 Cout= 4p asym
C10 N005 0 .5p Rpar=1K noiseless
D1 N006 5 Y
D6 5 N006 Y
C1 2 1 4.125p noiseless
G1 0 M 3 0 1m
G2 0 M 4 0 1m
R3 M 0 1K noiseless
S1 N006 M 4 3 UVLO
D3 N006 3 X
D4 4 N006 X
D2 3 4 IQ
C7 1 4 1.375p Rpar=750G noiseless
C8 3 2 1.375p Rpar=750G noiseless
C9 2 4 1.375p Rpar=750G noiseless
I1 1 4 25p load
I2 2 4 25p load
B1 N005 0 I=1m*dnlim(uplim(V(2),V(3)-1,.1), V(4)+3.5, .1)+100n*V(2)
B2 0 N005 I=1m*dnlim(uplim(V(1),V(3)-1,.1), V(4)+3.5, .1)+100n*V(1)
.model X D(Ron=10K Roff=100G Vfwd=-1.25 epsilon=.1 noiseless)
.model Y D(Ron=500 Roff=1T Vfwd=2.86 epsilon=.1 noiseless)
.model N VDMOS(Vto=-250m Kp=5m Ksubthres=.2 noiseless)
.model P VDMOS(Vto=250m Kp=5m pchan Ksubthres=.2 noiseless)
.model UVLO SW(Ron=1K Roff=5G Vt=-3.75 Vh=.25 noiseless)
.model IQ D(Ron=2K Vfwd=2 epsilon=1 Ilimit=4.7m noiseless)
.ends AD712
*
.subckt AD746 1 2 3 4 5
A1 2 1 0 0 0 0 0 0 OTA g=0 in=.01p ink=10 incm=.001p incmk=10
M1 3 N005 5 5 N temp=27
M2 4 N005 5 5 P temp=27
C3 3 5 2p
C4 5 4 2p
C6 3 1 1.375p Rpar=62.5G noiseless
D1 N005 5 Y
D6 5 N005 Y
C1 2 1 4.125p noiseless
G1 0 M 3 0 1m
G2 0 M 4 0 1m
R3 M 0 1K noiseless
S1 N005 M 4 3 UVLO
D3 N005 3 X
D4 4 N005 X
D2 3 4 IQ
C7 1 4 1.375p Rpar=62.5G noiseless
C8 3 2 1.375p Rpar=62.5G noiseless
C9 2 4 1.375p Rpar=62.5G noiseless
I1 1 4 110p load
I2 2 4 110p load
B1 N004 0 I=2m*dnlim(uplim(V(2),V(3)-0.5,.1), V(4)+3.5, .1)+100n*V(2)
B2 0 N004 I=2m*dnlim(uplim(V(1),V(3)-0.5,.1), V(4)+3.5, .1)+100n*V(1)
A2 0 N006 M M M M N005 M OTA g=130u Isrc=180u en=16n enk=100 Vlow=-1e308 Vhigh=1e308 Cout= 1.4p Isink=-120u asym
C5 N004 0 5p Rpar=1K noiseless
C10 N006 0 5p Rpar=1K noiseless
L1 N004 N006 5µ
.model X D(Ron=10K Roff=100G Vfwd=-1.25 epsilon=.1 noiseless)
.model Y D(Ron=500 Roff=1T Vfwd=2.86 epsilon=.1 noiseless)
.model N VDMOS(Vto=-250m Kp=5m Ksubthres=.2 noiseless)
.model P VDMOS(Vto=250m Kp=5m pchan Ksubthres=.2 noiseless)
.model UVLO SW(Ron=1K Roff=3G Vt=-3.75 Vh=.25 noiseless)
.model IQ D(Ron=2K Vfwd=2 epsilon=1 Ilimit=4.7m noiseless)
.ends AD746
*
.subckt AD795 1 2 3 4 5
A1 2 1 0 0 0 0 0 0 OTA g=0 in=.6f ink=250 incm=.06f incmk=250
M1 3 N004 5 5 N temp=27
M2 4 N004 5 5 P temp=27
C3 3 5 2p
C4 5 4 2p
B1 0 N003 I=2m*dnlim(uplim(V(1),V(3)-.15,.1), V(4)+4, .1)+100n*V(1)
B2 N003 0 I=2m*dnlim(uplim(V(2),V(3)-.15,.1), V(4)+4, .1)+100n*V(2)
C6 3 1 .55p Rpar=400T noiseless
C7 1 4 .55p noiseless Rpar=400T
C8 2 4 .55p Rpar=400T noiseless
C9 3 2 .55p Rpar=400T noiseless
A2 0 N006 M M M M N004 M OTA g=36u Isrc=8u Isink=-5u en=9n enk=200 Vlow=-1e308 Vhigh=1e308 Cout= 4.3p asym
C10 N003 0 22p Rpar=1K noiseless
D1 N004 5 Y
D6 5 N004 Y
C1 2 1 1.45p Rpar=1.01T noiseless
G1 0 M 3 0 1m
G2 0 M 4 0 1m
R3 M 0 1K noiseless
S1 N004 M 4 3 UVLO
D3 N004 3 X
D4 4 N004 X
L1 N003 N005 22µ
L2 N005 N006 22µ
C2 N006 0 22p Rpar=1K noiseless
C5 N005 0 44p
D2 3 4 IQ
.model X D(Ron=1K Roff=100G Vfwd=-2.5 epsilon=.1 noiseless)
.model Y D(Ron=500 Roff=1T Vfwd=2.2 epsilon=.1 noiseless)
.model N VDMOS(Vto=-250m Kp=5m Ksubthres=.2 noiseless)
.model P VDMOS(Vto=250m Kp=5m pchan Ksubthres=.2 noiseless)
.model UVLO SW(Ron=1K Roff=100G Vt=-3.75 Vh=.25 noiseless)
.model IQ D(Ron=2K Vfwd=2 epsilon=1 Ilimit=1m noiseless)
.ends AD795
*
.subckt AD820 1 2 3 4 5
C1 N006 X {Cf}
A1 N005 0 M M M M X M OTA g={Ga} Iout={Islew} en=13n enk=20 Vhigh=1e308 Vlow=-1e308
D21 X 3 ESD
D22 4 X ESD
D5 N006 3 X1
D6 4 N006 X2
C2 3 N006 1p
C3 N006 4 1p
G2 0 M 3 0 500µ
R4 M 0 1K noiseless
G3 0 M 4 0 500µ
S1 X M 4 3 SD
A2 2 1 0 0 0 0 0 0 OTA g=0 in=.8f ink=1 incm=.08f incmk=1
I1 1 4 2p load
I2 2 4 2p load
C11 3 1 .7p Rpar=40T noiseless
C5 1 4 .7p Rpar=40T noiseless
C10 2 4 .7p Rpar=40T noiseless
C12 3 2 .7p Rpar=40T noiseless
B3 0 N004 I=2m*dnlim(uplim(V(1),V(3)-1,.1), V(4)+-.2, .1)+100n*V(1)
B4 N004 0 I=2m*dnlim(uplim(V(2),V(3)-1,.1), V(4)+-.2, .1)+100n*V(2)
C4 N004 0 35p Rpar=1K noiseless
D1 3 4 IQ
L1 N004 N005 35µ
C6 N005 0 35p Rpar=1K noiseless
C7 3 5 1p
C8 5 4 1p
R5 2 1 13.35T noiseless
B1 3 N006 I=if(V(m,x)>=0, V(m,x)*(Gb+Gbx*V(m,x)),0)
B2 N006 4 I=if(V(x,m)>0, V(x,m)*(Gb+Gbx*V(x,m)),0)
D2 N006 N007 20Ohm
D3 5 N007 45mA
C9 3 N007 1p
C13 N007 4 1p
.param Cf = 1p
.param Ro = 1Meg
.param Avol  =  60K
.param RL =  2K
.param AVmid =  200
.param FmidA = 10K
.param Zomid = .3
.param FmidZ  = 10K
.param Iout = 25m
.param Vslew  = 4Meg
.param Vmin = 2.5
.param Roe = 1/(1/RL+1/Ro)
.param Gb = ((FmidZ/FmidA)*(Roe/(AVmid*Zomid))-1)/Roe
.param Ga = 2*pi*FmidZ*Cf/(Zomid*gb)
.param RH = Avol/(Ga*Gb*Roe)
.param Islew = Vslew*Cf*(1+1/(Roe*Gb))
.param Gbx = 50*Gb
.model ESD D(Ron=10 Roff=1T Vfwd=0 epsilon=1 noiseless)
.model X1 D(Ron=1m Roff={2*Ro} Vfwd=-3m epsilon=10m noiseless)
.model X2 D(Ron=1m Roff={2*Ro} Vfwd=-6m epsilon=10m noiseless)
.model SD SW(Ron=10m Roff={RH} Vt={-Vmin-100m} Vh=-100m noiseless)
.model 20Ohm D(Ron=10 Roff=30 epsilon=10m noiseless)
.model 45mA D(Ron=10 Vrev=0 Ilimit=45m revIlimit=45m)
.model IQ D(Ron=2K Vfwd=2 epsilon=1 Ilimit=.7m noiseless)
.ends AD820
*
*AD8682 Macro-model
*Revision History:
*Rev.1 Nov 2016-ZZ
*Copyright 2016 by Analog Devices
*Refer to http://www.analog.com/Analog_Root/static/techSupport/designTools/spicemodels/license
*for License Statement. Use of this model indicates your acceptance
*of the terms and provisions in the License Staement.
*
*Tested on MultSIm, SiMetrix(NGSpice), PSpice
*
*Not modeled: Distortion, PSRR, Overload Recovery,
*             Shutdown Turn On/Turn Off time
*
*Parameters modeled include:
*   Vos, Ibias, Input CM limits and Typ output voltge swing over full supply range,
*   Open Loop Gain & Phase, Slew Rate, Output current limits, Voltage & Current Noise over temp,
*   Capacitive load drive, Quiescent and dynamic supply currents,
*   Shut Down pin functionality where applicable,
*   Single supply & offset supply functionality.
*
*Node Assignments
*               Non-Inverting Input
*               |   Inverting Input
*               |   |   Positive supply
*               |   |   |   Negative supply
*               |   |   |   |   Output
*               |   |   |   |   |
.Subckt AD8682 100 101 102 103 104
*
***Power Supplies***
Rz1	102	1020	Rideal	1e-6
Rz2	103	1030	Rideal	1e-6
Ibias	1020	1030	dc	0.44e-3
DzPS	98	1020	diode
Iquies	1020	98	dc	3.96e-3
S1	98	1030	106	113	Switch
R1	1020	99	Rideal	1e7
R2	99	1030	Rideal	1e7
e1	111	110	1020	110	1
e2	110	112	110	1030	1
e3	110	0	99	0	1
*
*
***Inputs***
S2	1	100	106	113	Switch
S3	9	101	106	113	Switch
VOS	1	2	dc	2.5e-3
IbiasP	110	2	dc	2e-12
IbiasN	110	9	dc	2e-12
RinCMP	110	2	Rideal	2000e6
RinCMN	9	110	Rideal	2000e6
CinCMP	110	2	2.2e-12
CinCMN	9	110	2.2e-12
IOS	9	2	1e-15
RinDiff	9	2	Rideal	10000e3
CinDiff	9	2	0.8e-12
*
*
***Non-Inverting Input with Clamp***
g1	3	110	110	2	0.001
RInP	3	110	Rideal	1e3
RX1	40	3	Rideal	0.001
DInP	40	41	diode
DInN	42	40	diode
VinP	111	41	dc	0.46
VinN	42	112	dc	4.46
*
*
***Vnoise***
hVn	6	5	Vmeas1	707.10678
Vmeas1	20	110	DC	0
Vvn	21	110	dc	0.65
Dvn	21	20	DVnoisy
hVn1	6	7	Vmeas2	707.10678
Vmeas2	22	110	dc	0
Vvn1	23	110	dc	0.65
Dvn1	23	22	DVnoisy
*
*
***Inoise***
FnIN	9	110	Vmeas3	0.7071068
Vmeas3	51	110	dc	0
VnIN	50	110	dc	0.65
DnIN	50	51	DINnoisy
FnIN1	110	9	Vmeas4	0.7071068
Vmeas4	53	110	dc	0
VnIN1	52	110	dc	0.65
DnIN1	52	53	DINnoisy
*
FnIP	2	110	Vmeas5	0.7071068
Vmeas5	31	110	dc	0
VnIP	30	110	dc	0.65
DnIP	30	31	DIPnoisy
FnIP1	110	2	Vmeas6	0.7071068
Vmeas6	33	110	dc	0
VnIP1	32	110	dc	0.65
DnIP1	32	33	DIPnoisy
*
*
***CMRR***
RcmrrP	3	10	Rideal	1e12
RcmrrN	10	9	Rideal	1e12
g10	11	110	10	110	-6.325e-9
Lcmrr	11	12	15.9e-3
Rcmrr	12	110	Rideal	1e3
e4	5	3	11	110	1
*
*
***Power Down***
VPD	111	80	dc	2
VPD1	81	0	dc	1.5
RPD	111	106	Rideal	1e6
ePD	80	113	82	0	1
RDP1	82	0	Rideal	1e3
CPD	82	0	1e-10
S5	81	82	83	113	Switch
CDP1	83	0	1e-12
RPD2	106	83	1e6
*
*
***Feedback Pin***
*RF	105	104	Rideal	0.001
*
*
***VFB Stage***
g200	200	110	7	9	1
R200	200	110	Rideal	250
DzSlewP	201	200	DzSlewP
DzSlewN	201	110	DzSlewN
*
*
***Dominant Pole at 0.08 Hz***
g210	210	110	200	110	0.0636e-6
R210	210	110	Rideal	1989.43e6
C210	210	110	1e-012
*
*
***Output Voltage Clamp-1***
RX2	60	210	Rideal	0.001
DzVoutP	61	60	DzVoutP
DzVoutN	60	62	DzVoutN
DVoutP	61	63	diode
DVoutN	64	62	diode
VoutP	65	63	dc	6.095
VoutN	64	66	dc	6.095
e60	65	110	111	110	1
e61	66	110	112	110	1
*
*
***Pole at 12MHz***
g220	220	110	210	110	0.001
R220	220	110	Rideal	1000
C220	220	110	13.2629e-12
*
***Pole at 12MHz***
g230	230	110	220	110	0.001
R230	230	110	Rideal	1000
C230	230	110	13.2629e-12
*
***Pole at 12MHz***
g240	240	110	230	110	0.001
R240	240	110	Rideal	1000
C240	240	110	13.2629e-12
*
***Pole at 50MHz***
g245	245	110	240	110	0.001
R245	245	110	Rideal	1000
C245	245	110	3.1831e-12
*
***Pole at 50MHz***
g250	250	110	245	110	0.001
R250	250	110	Rideal	1000
C250	250	110	3.1831e-12
*
***Pole at 50MHz***
g255	255	110	250	110	0.001
R255	255	110	Rideal	1000
C255	255	110	3.1831e-12
*
***Pole at 50MHz***
g260	260	110	255	110	0.001
R260	260	110	Rideal	1000
C260	260	110	3.1831e-12
*
***Pole at 50MHz***
g265	265	110	260	110	0.001
R265	265	110	Rideal	1000
C265	265	110	3.1831e-12
*
***Buffer***
g270	270	110	265	110	0.001
R270	270	110	Rideal	1000
*
***Buffer***
e280	280	110	270	110	1
R280	280	285	Rideal	10
*
***Peak: f=50MHz, Zeta=0.7, Gain=0.2dB***
e290	290	110	285	110	1
R290	290	292	Rideal	10
L290	290	291	22.736e-9
C290	291	292	445.633e-12
R291	292	110	Rideal	429.314
e295	295	110	292	110	1.0233
*
*
***Output Stage***
g300	300	110	295	110	0.001
R300	300	110	Rideal	1000
e301	301	110	300	110	1
Rout	302	303	Rideal	 .3
Lout	303	310	 1e-9
Cout	310	110	 1e-12
*
*
***Output Current Limit***
H1	301	304	Vsense1	100
Vsense1	301	302	dc	0
VIoutP	305	304	dc	-0.364
VIoutN	304	306	dc	0.136
DIoutP	307	305	diode
DIoutN	306	307	diode
Rx3	307	300	Rideal	0.001
*
*
***Output Clamp-2***
VoutP1	111	73	dc	1.785
VoutN1	74	112	dc	1.785
DVoutP1	75	73	diode
DVoutN1	74	75	diode
RX4	75	310	Rideal	0.001
*
*
***Supply Currents***
FIoVcc	314	110	Vmeas8	1
Vmeas8	310	311	dc	0
R314	110	314	Rideal	1e9
DzOVcc	110	314	diode
DOVcc	102	314	diode
RX5	311	312	Rideal	0.001
FIoVee	315	110	Vmeas9	1
Vmeas9	312	313	dc	0
R315	315	110	Rideal	1e9
DzOVee	315	110	diode
DOVee	315	103	diode
*
*
***Output Switch***
S4	104	313	106	113	Switch
*
*
*** Common Models ***
.model	diode	d(bv=100)
.model	Switch	vswitch(Von=1.505,Voff=1.495,ron=0.001,roff=1e6)
.model	DzVoutP	D(BV=4.3)
.model	DzVoutN	D(BV=4.3)
.model	DzSlewP	D(BV=142.026)
.model	DzSlewN	D(BV=142.026)
.model	DVnoisy	D(IS=4.90e-14 KF=3.04e-18)
.model	DINnoisy	D(IS=3.81e-21 KF=0.00e0)
.model	DIPnoisy	D(IS=3.81e-21 KF=0.00e0)
.model	Rideal	res(T_ABS=-273)
*
.ends
*AD8684 Macro-model
*Function:Amplifier
*
*Revision History:
*Rev.1 Nov 2016-ZZ
*Copyright 2016 by Analog Devices
*
*Refer to http://www.analog.com/Analog_Root/static/techSupport/designTools/spicemodels/license
*for License Statement. Use of this model indicates your acceptance
*of the terms and provisions in the License Staement.
*
*Tested on MultSIm, SiMetrix(NGSpice), PSpice
*
*Not modeled: Distortion, PSRR, Overload Recovery,
*             Shutdown Turn On/Turn Off time
*
*Parameters modeled include:
*   Vos, Ibias, Input CM limits and Typ output voltge swing over full supply range,
*   Open Loop Gain & Phase, Slew Rate, Output current limits, Voltage & Current Noise over temp,
*   Quiescent and dynamic supply currents,
*   Single supply & offset supply functionality.
*
*Node Assignments
*               Non-Inverting Input
*               |   Inverting Input
*               |   |   Positive supply
*               |   |   |   Negative supply
*               |   |   |   |   Output
*               |   |   |   |   |
.Subckt AD8684 100 101 102 103 104
*#ASSOC Category="Op-amps" symbol=opamp
*
***Power Supplies***
Rz1	102	1020	Rideal	1e-6
Rz2	103	1030	Rideal	1e-6
Ibias	1020	1030	dc	0.44e-3
DzPS	98	1020	diode
Iquies	1020	98	dc	3.96e-3
S1	98	1030	106	113	Switch
R1	1020	99	Rideal	1e7
R2	99	1030	Rideal	1e7
e1	111	110	1020	110	1
e2	110	112	110	1030	1
e3	110	0	99	0	1
*
*
***Inputs***
S2	1	100	106	113	Switch
S3	9	101	106	113	Switch
VOS	1	2	dc	3.5e-3
IbiasP	110	2	dc	5e-12
IbiasN	110	9	dc	5e-12
RinCMP	110	2	Rideal	2000e6
RinCMN	9	110	Rideal	2000e6
CinCMP	110	2	2.2e-12
CinCMN	9	110	2.2e-12
IOS	9	2	10e-15
RinDiff	9	2	Rideal	10000e3
CinDiff	9	2	0.8e-12
*
*
***Non-Inverting Input with Clamp***
g1	3	110	110	2	0.001
RInP	3	110	Rideal	1e3
RX1	40	3	Rideal	0.001
DInP	40	41	diode
DInN	42	40	diode
VinP	111	41	dc	0.46
VinN	42	112	dc	4.46
*
*
***Vnoise***
hVn	6	5	Vmeas1	707.10678
Vmeas1	20	110	DC	0
Vvn	21	110	dc	0.65
Dvn	21	20	DVnoisy
hVn1	6	7	Vmeas2	707.10678
Vmeas2	22	110	dc	0
Vvn1	23	110	dc	0.65
Dvn1	23	22	DVnoisy
*
*
***Inoise***
FnIN	9	110	Vmeas3	0.7071068
Vmeas3	51	110	dc	0
VnIN	50	110	dc	0.65
DnIN	50	51	DINnoisy
FnIN1	110	9	Vmeas4	0.7071068
Vmeas4	53	110	dc	0
VnIN1	52	110	dc	0.65
DnIN1	52	53	DINnoisy
*
FnIP	2	110	Vmeas5	0.7071068
Vmeas5	31	110	dc	0
VnIP	30	110	dc	0.65
DnIP	30	31	DIPnoisy
FnIP1	110	2	Vmeas6	0.7071068
Vmeas6	33	110	dc	0
VnIP1	32	110	dc	0.65
DnIP1	32	33	DIPnoisy
*
*
***CMRR***
RcmrrP	3	10	Rideal	1e12
RcmrrN	10	9	Rideal	1e12
g10	11	110	10	110	-6.325e-9
Lcmrr	11	12	22.59e-3
Rcmrr	12	110	Rideal	5e3
e4	5	3	11	110	1
*
*
***Power Down***
VPD	111	80	dc	2
VPD1	81	0	dc	1.5
RPD	111	106	Rideal	1e6
ePD	80	113	82	0	1
RDP1	82	0	Rideal	1e3
CPD	82	0	1e-10
S5	81	82	83	113	Switch
CDP1	83	0	1e-12
RPD2	106	83	1e6
*
*
***Feedback Pin***
*RF	105	104	Rideal	0.001
*
*
***VFB Stage***
g200	200	110	7	9	1
R200	200	110	Rideal	250
DzSlewP	201	200	DzSlewP
DzSlewN	201	110	DzSlewN
*
*
***Dominant Pole at 0.08 Hz***
g210	210	110	200	110	0.0636e-6
R210	210	110	Rideal	1989.43e6
C210	210	110	1e-012
*
*
***Output Voltage Clamp-1***
RX2	60	210	Rideal	0.001
DzVoutP	61	60	DzVoutP
DzVoutN	60	62	DzVoutN
DVoutP	61	63	diode
DVoutN	64	62	diode
VoutP	65	63	dc	6.095
VoutN	64	66	dc	6.095
e60	65	110	111	110	1
e61	66	110	112	110	1
*
*
***Pole at 12MHz***
g220	220	110	210	110	0.001
R220	220	110	Rideal	1000
C220	220	110	13.2629e-12
*
***Pole at 12MHz***
g230	230	110	220	110	0.001
R230	230	110	Rideal	1000
C230	230	110	13.2629e-12
*
***Pole at 12MHz***
g240	240	110	230	110	0.001
R240	240	110	Rideal	1000
C240	240	110	13.2629e-12
*
***Pole at 50MHz***
g245	245	110	240	110	0.001
R245	245	110	Rideal	1000
C245	245	110	3.1831e-12
*
***Pole at 50MHz***
g250	250	110	245	110	0.001
R250	250	110	Rideal	1000
C250	250	110	3.1831e-12
*
***Pole at 50MHz***
g255	255	110	250	110	0.001
R255	255	110	Rideal	1000
C255	255	110	3.1831e-12
*
***Pole at 50MHz***
g260	260	110	255	110	0.001
R260	260	110	Rideal	1000
C260	260	110	3.1831e-12
*
***Pole at 50MHz***
g265	265	110	260	110	0.001
R265	265	110	Rideal	1000
C265	265	110	3.1831e-12
*
***Buffer***
g270	270	110	265	110	0.001
R270	270	110	Rideal	1000
*
***Buffer***
e280	280	110	270	110	1
R280	280	285	Rideal	10
*
***Peak: f=50MHz, Zeta=0.7, Gain=0.2dB***
e290	290	110	285	110	1
R290	290	292	Rideal	10
L290	290	291	22.736e-9
C290	291	292	445.633e-12
R291	292	110	Rideal	429.314
e295	295	110	292	110	1.0233
*
*
***Output Stage***
g300	300	110	295	110	0.001
R300	300	110	Rideal	1000
e301	301	110	300	110	1
Rout	302	303	Rideal	 .3
Lout	303	310	 1e-9
Cout	310	110	 1e-12
*
*
***Output Current Limit***
H1	301	304	Vsense1	100
Vsense1	301	302	dc	0
VIoutP	305	304	dc	-0.364
VIoutN	304	306	dc	0.136
DIoutP	307	305	diode
DIoutN	306	307	diode
Rx3	307	300	Rideal	0.001
*
*
***Output Clamp-2***
VoutP1	111	73	dc	1.785
VoutN1	74	112	dc	1.785
DVoutP1	75	73	diode
DVoutN1	74	75	diode
RX4	75	310	Rideal	0.001
*
*
***Supply Currents***
FIoVcc	314	110	Vmeas8	1
Vmeas8	310	311	dc	0
R314	110	314	Rideal	1e9
DzOVcc	110	314	diode
DOVcc	102	314	diode
RX5	311	312	Rideal	0.001
FIoVee	315	110	Vmeas9	1
Vmeas9	312	313	dc	0
R315	315	110	Rideal	1e9
DzOVee	315	110	diode
DOVee	315	103	diode
*
*
***Output Switch***
S4	104	313	106	113	Switch
*
*
*** Common Models ***
.model	diode	d(bv=100)
.model	Switch	vswitch(Von=1.505,Voff=1.495,ron=0.001,roff=1e6)
.model	DzVoutP	D(BV=4.3)
.model	DzVoutN	D(BV=4.3)
.model	DzSlewP	D(BV=142.026)
.model	DzSlewN	D(BV=142.026)
.model	DVnoisy	D(IS=4.90e-14 KF=3.04e-18)
.model	DINnoisy	D(IS=3.81e-21 KF=0.00e0)
.model	DIPnoisy	D(IS=3.81e-21 KF=0.00e0)
.model	Rideal	res(T_ABS=-273)
*
.ends AD8684

* ADA4091 SPICE Macro-model
* Developed by: HH / AD-SJ
* Revision History: 08/10/2012 - Updated to new header style
* 05/14/2014 - ported to Simplis (JSW)
* 0.0 (04/2009)
* Copyright 2008, 2012 by Analog Devices
*
* Refer to http://www.analog.com/Analog_Root/static/techSupport/designTools/spiceModels/license/spice_general.html for License Statement.  Use of this model
* indicates your acceptance of the terms and provisions in the License Statement.
*
* BEGIN Notes:
*
* Not Modeled:
*
* Parameters modeled include:
*
* END Notes
*
* Node assignments
*                non-inverting input
*                |  inverting input
*                |  |  positive supply
*                |  |  |  negative supply
*                |  |  |  |  output
*                |  |  |  |  |
.SUBCKT ADA4091  1  2  99 50 45
*#ASSOC Category="Op-amps" symbol=opamp
*
* INPUT STAGE
*
I1   99   7    8.00E-06
Q1   6    4    7A    QP
Q2   5    3    7B    QP
RE1  7A   7   7.774E+02
RE2  7B   7   7.774E+02
D1   3    99   DX
D2   4    99   DX
D3   50   3    DX
D4   50   4    DX
D5   3    4    DX
D6   4    3    DX
R1   3    8    5E+03
R2   4    2    5E+03
R3   5    50   7.500E4;
R4   6    50   7.500E4;
Cph  5    5A   0.235E-12
Rph  5A   6    300
EOS  8    1    POLY(4) (73,98) (22,98) (81,98) (83,98) -400E-9   1 1 1 1
IOS  3    4     -50E-12
CDiff  1    2    2.5E-12
Cin1   1   50    2E-12
Cin2   2   50    2E-12
*
* INPUT PROTECTION NETWORK
*
X_in1 1 50 Diac1
X_in2 2 50 Diac1
X_in3 1 99 Diac1
X_in4 2 99 Diac1
*
*
RS1  99   39   400.0E3
RS2  39   50   400.0E3
EREF 98   0    (39,0) 1
*
* 1ST GAIN STAGE
*
G1   9  98    (6,5) 1.0E-06
R7   9   98   1E6
*
* 2ND GAIN STAGE AND DOMINANT POLE
*
R8    12   98   1.094E+08
G2    12   98  (98,9) 3.881E-06
D7   12   13   DX
D8   14   12   DX
V1   13   98   +0.2; source
V2   14   98   -0.2; sink
*
* Provision for second pole
*
G3   18   98   (98,12) 1E-05
R11  18   98   1E5
*
* CMRR=90dB, Pole at 1100 Hz
*
ECM  21   98   POLY(2) (1,98) (2,98) 0 1.318E-01 1.318E-01
R10  21   22   1.326E+05
R20  22   98   1.592E+01
C10  21   22   1E-9
*
* PSRR=85dB, POLE AT 300 Hz
*
EPSY 72 98 POLY(1) (99,50) +0.1E-1 1.770E+01
RPS1 72 73 7.958E+02
RPS2 73 98 3.183E-03
CPS1 72 73 1.00E-06
*
* VOLTAGE NOISE REFERENCE OF 24nV/rt(Hz)
*
VN1 80 98 0
RN1 80 98 96.300E-3
HN  81 98 VN1 2.397E+01
RN2 81 98 1
*
* FLICKER NOISE CORNER = 300 Hz
*
DFN 82 98 DNOISE
VFN 82 98 DC 0.6551
HFN 83 98 POLY(1) VFN 1.00E-03 1.00E+00
RFN 83 98 1
*
* OUTPUT STAGE
*
Q3   451 41 99 POUT
RB1  40 41 1.5E+03
EB1  99 40 POLY(1) (98,18) 6.190E-01  1E-0;
Q4   451 43 50 NOUT
RB2  42 43 2.0E+03
EB2  42 50 POLY(1) (18,98) 6.155E-01  1E-0;
Lout 45 451  10E-10
RZ  45 453  100
CZ  453  12  4.67E-12
*
GSY  99 50 POLY(1) (99 50) 106.2E-6 -0.89E-06
*
* MODELS
*
.MODEL QP PNP(BF=80, IS=1.00E-16, VA=130)
.MODEL POUT PNP (BF=80,IS=2.8E-15,VA=130,IK=6E+00,BR=15,VAR=14.4, RC=30)
.MODEL NOUT NPN (BF=120,IS=3.2E-15,VA=250,IK=11E+00,BR=30, VAR=20.0, RC=7)
.MODEL DW D(IS=1E-18)
.MODEL DX D()
.MODEL DY D(IS=1E-9)
.MODEL DZ D(IS=1E-6)
.MODEL DNOISE D(IS=1E-14,RS=0,KF=8.640E-12)
*
.SUBCKT Diac1 1 2
Done 1 3 DZ42hh
Dtwo 2 3 DZ42hh
.MODEL DZ42hh D(IS=3.3179E-6, N=2.0, RS=1.0000E-3, CJO=10.00E-12, M=.31349, VJ=.3905, ISR=2.9061E-9, BV=42.0, IBV=5.0E-03, TT=300.0E-9)
.ENDS Diac1
*
*
.ENDS  ADA4091
*
* ADA4092 SPICE Macro-model
* Developed by: HH / AD-SJ
* Revision History: 08/10/2012 - Updated to new header style
* 05/14/2014 - Ported to Simplis (JSW)
* 0.0 (12/2010)
* Copyright 2010, 2012 by Analog Devices
*
* Refer to http://www.analog.com/Analog_Root/static/techSupport/designTools/spiceModels/license/spice_general.html for License Statement.  Use of this model
* indicates your acceptance of the terms and provisions in the License Statement.
*
* BEGIN Notes:
*
* Not Modeled:
*
* Parameters modeled include:
*
* END Notes
*
* Node assignments
*                non-inverting input
*                |  inverting input
*                |  |  positive supply
*                |  |  |  negative supply
*                |  |  |  |  output
*                |  |  |  |  |
.SUBCKT ADA4092  1  2  99 50 45
*#ASSOC Category="Op-amps" symbol=opamp
*
* INPUT STAGE
*
Q1   6    4    7A    QP
Q2   5    3    7B    QP
RE1  7A   7   5.656E+02
RE2  7B   7   5.656E+02
I1   99   7    8.00E-06
D1   3    99   DX
D2   4    99   DX
D3   50   3    DX
D4   50   4    DX
D5   3    4    DX
D6   4    3    DX
R1   3    8    5E+03
R2   4    2    5E+03
R3   5    50   7.500E4;
R4   6    50   7.500E4;
Cph  5    5A   0.23E-12
Rph  5A   6    300
EOS  8    1    POLY(4) (73,98) (22,98) (81,98) (83,98) -1.4E-03 1 1 1 1
IOS  3    4     -2.0E-09
CDiff  1    2    2.5E-12
Cin1   1   50    2E-12
Cin2   2   50    2E-12
*
* INPUT PROTECTION NETWORK
*
X_in1 1 50 Diac1
X_in2 2 50 Diac1
X_in3 1 99 Diac1
X_in4 2 99 Diac1
*
*
RS1  99   39   400.0E3
RS2  39   50   400.0E3
EREF 98   0    (39,0) 1
*
* 1ST GAIN STAGE
*
R7    9  98    3.266E+08
G1    9  98  (6,5) 4.303E-06
D7    9  13   DX
D8   14   9   DX
V1   13  98   0.37; sink
V2   14  98   +0.017; source
*
* 2ND GAIN STAGE AND DOMINANT POLE
*
R8   12   98   1.0E+06
G2   12   98  (98,9) 1.0E-06
*
* Provision for second pole
*
G3   18   98   (98,12) 1E-05
R11  18   98   1E5
*
* CMRR
*
ECM  21   98   POLY(2) (1,98) (2,98) 0 7.813E-02 7.813E-02
R10  21   22   2.487E+04
R20  22   98   1.592E+01
C10  21   22   1E-9
*
* PSRR
*
EPSY 72 98 POLY(1) (99,50) +0.1E-6 1.485E+01
RPS1 72 73 5.305E+02
RPS2 73 98 3.183E-03
CPS1 72 73 1.00E-06
*
* VOLTAGE NOISE REFERENCE OF 30nV/rt(Hz)
*
VN1 80 98 0
RN1 80 98 25.5E-3
HN  81 98 VN1 3.0E+01
RN2 81 98 1
*
* FLICKER NOISE CORNER
*
DFN 82 98 DNOISE
VFN 82 98 DC 0.6551
HFN 83 98 POLY(1) VFN 1.00E-03 1.00E+00
RFN 83 98 1
*
* OUTPUT STAGE
*
Q3   451 41 99 POUT
RB1  40 41 1.5E+03
EB1  99 40 POLY(1) (98,18) 6.190E-01  1E-0;
Q4   451 43 50 NOUT
RB2  42 43 2.0E+03
EB2  42 50 POLY(1) (18,98) 6.155E-01  1E-0;
Lout 45 451  6.2E-12
RZ  451 453  100
CZ  453  9  4.6E-12
*
GSY  99 50 POLY(1) (99 50) 79.9E-6 -1.04E-06
*
* MODELS
*
.MODEL QP PNP(BF=80, IS=1.00E-16, VA=130)
.MODEL POUT PNP (BF=80,IS=2.8E-15,VA=130, BR=3,VAR=15, RC=38);
.MODEL NOUT NPN (BF=120,IS=3.2E-15,VA=250, BR=7, VAR=20, RC=8);
.MODEL DW D(IS=1E-18)
.MODEL DX D()
.MODEL DY D(IS=1E-9)
.MODEL DZ D(IS=1E-6)
.MODEL DNOISE D(IS=1E-14,RS=0,KF=1.15E-12)
*
.SUBCKT Diac1 1 2
Done 1 3 DZ42hh
Dtwo 2 3 DZ42hh
.MODEL DZ42hh D(IS=3.3179E-6, N=2.0, RS=1.0000E-3, CJO=10.00E-12, M=.31349, VJ=.3905, ISR=2.9061E-9, BV=42.0, IBV=5.0E-03, TT=300.0E-9)
.ENDS Diac1
.ENDS  ADA4092
*
* ADA4096 SPICE Macro-model
* Developed by: HH / AD-SJ
* Revision History: 08/10/2012 - Updated to new header style
* 0.0 (07/2011)
* Copyright 2011, 2012 by Analog Devices
*
* Refer to http://www.analog.com/Analog_Root/static/techSupport/designTools/spiceModels/license/spice_general.html for License Statement.  Use of this model
* indicates your acceptance of the terms and provisions in the License Statement.
*
* BEGIN Notes:
*
* Not Modeled:
*
* Parameters modeled include:
*
* END Notes
*
* Node assignments
*                non-inverting input
*                |  inverting input
*                |  |  positive supply
*                |  |  |  negative supply
*                |  |  |  |  output
*                |  |  |  |  |
.SUBCKT ADA4096  1  2  99 50 45
*#ASSOC Category="Op-amps" symbol=opamp
*
* INPUT STAGE
*
I1   99   7    8.00E-06
RE1  7   7A    3.714E+03
RE2  7   7B    3.714E+03
Q1   6    4    7A    QP
Q2   5    3    7B    QP
D1   3    99   DX
D2   4    99   DX
D3   50   3    DX
D4   50   4    DX
D5   3    4    DX
D6   4    3    DX
R1   202    8    5E-03
R2   204    4    5E-03
R3   5    50   7.500E4;
R4   6    50   7.500E4;
Cph  5    5A   6.3E-13
Rph  5A   6    400
EOS  8   3    POLY(4) (73,98) (22,98) (81,98) (83,98) -250E-06 1 1 1 1
IOS  3    4     -1.0E-09
CDiff  1    2    6.35E-12
Cin1   1   50    0.67E-12
Cin2   2   50    0.67E-12
*
* INPUT PROTECTION NETWORK
*
J1    1  201  202  JXB ;
J2  201  201  202  JXL ;
J3    2  203  204  JXB ;
J4  203  203  204  JXL
*
* 1ST GAIN STAGE
*
G1   9  98    (6,5) 1.0E-06
R7   9  98   1E6
*
* 2ND GAIN STAGE AND DOMINANT POLE
*
G2    12   98  (98,9) 3.375E-06
R8    12   98  3.4E+08
D7   12   13   DX
D8   14   12   DX
V1   13   98   +0.5;
V2   14   98   -0.2;
*
* Provision for second pole
*
G3   18   98   (98,12) 1E-05
R11  18   98   1E5
C11x 18   98  1E-14
*
* CMRR
*
ECM  21   98   POLY(2) (1,98) (2,98) 0 2.635E-01 2.635E-01
R10  21   22   1.326E+05
R20  22   98   7.958E+00
C10  21   22   1E-9
*
* PSRR
*
EPSY 72 98 POLY(1) (99,50) -1.514E+3 5.048E+01
RPS1 72 73 1.592E+03
RPS2 73 98 1.989E-03
CPS1 72 73 1.00E-06
*
* VOLTAGE NOISE REFERENCE
*
VN1 80 98 0
RN1 80 98 96.300E-3
HN  81 98 VN1 2.397E+01
RN2 81 98 1
*
* FLICKER NOISE CORNER
*
DFN 82 98 DNOISE 1000
IFN 98 82 DC 1E-03
DFN2 182 98 DY
IFN2 98 182 DC 1E-06
GFN 83 98 POLY(1) (182,82) 1.00E-13 1.00E-01
RFN 83 98 1
*
* Current Noise
D60 60 98 DN1 1000
I60 98 60 1E-03
D61 61 98 DN4
I61 98 61 1E-06
G60 1 50 61 60 1.23E-05
G61 2 50 61 60 1.33E-05
*
RS1  99   39   400.0E3
RS2  39   50   400.0E3
EREF 98   0    (39,0) 1
*
GSY  99 50 POLY(1) (99 50) -23.8E-6 -1.109E-06
*
* OUTPUT STAGE
*
Q3   451 41 99 POUT
RB1  40 41 4.37E+03
EB1  99 40 POLY(1) (98,18) 6.218E-01  1E-0;
Q4   451 43 50 NOUT
RB2  42 43 10E+03
EB2  42 50 POLY(1) (18,98) 6.170E-01  1E-0;
Lout 45 451  10E-10
EZ 453 98 (45 98) 1
CZ  453  12  4.94E-12
R99T 201 202 450k
*
* MODELS
*
.MODEL QP PNP(BF=300, IS=1.00E-16, VA=130)
.MODEL POUT PNP (BF=80,IS=2.8E-15,VA=130,BR=4.3,VAR=20, RC=75);
.MODEL NOUT NPN (BF=120,IS=3.2E-15,VA=250,BR=9.5, VAR=18, RC=42);
.MODEL DN1 D IS=1E-16
.MODEL DN4 D IS=1E-16 AF=1 KF=4.35E-17
.MODEL DW D(IS=1E-18)
.MODEL DX D(IS=1E-16)
.MODEL DY D(IS=1E-16,RS=0.1)
.MODEL DZ D(IS=1E-6)
.MODEL DNOISE D(IS=1E-16,RS=0,KF=2.6E-13)
.MODEL JXL PJF(BETA=4E-05 VTO=-2.0 IS=1E-18 LAMBDA=0.008 RD=1E-1
+ RS=5E1 CGD=1E-12 CGS=1E-12)
.MODEL JXB PJF(BETA=10E-05 VTO=-1.6 IS=1E-19 LAMBDA=0.005 RD=1E-1 RS=1.41E3)
.ENDS  ADA4096
*
*$
*ADA4610 Macro-model
*Function:Amplifier
*
*Revision History:
*Rev.2.1 Feb 2016-ZZ
*Copyright 2016 by Analog Devices
*
*Refer to http://www.analog.com/Analog_Root/static/techSupport/designTools/spicemodels/license
*for License Statement. Use of this model indicates your acceptance
*of the terms and provisions in the License Staement.
*
*Tested on MultSIm, SiMetrix(NGSpice), PSpice
*
*Not modeled: Distortion, PSRR, Overload Recovery,
*             Shutdown Turn On/Turn Off time
*
*Parameters modeled include:
*   Vos, Ibias, Input CM limits and Typ output voltge swing over full supply range,
*   Open Loop Gain & Phase, Slew Rate, Output current limits, Voltage & Current Noise over temp,
*   Capacitive load drive, Quiescent and dynamic supply currents,
*   Shut Down pin functionality where applicable,
*   Single supply & offset supply functionality.
*
*Node Assignments
*                Non-Inverting Input
*                |   Inverting Input
*                |   |   Positive supply
*                |   |   |   Negative supply
*                |   |   |   |   Output
*                |   |   |   |   |
.Subckt ADA4610 100 101 102 103 104
*#ASSOC Category="Op-Amps" symbol=opamp
***Power Supplies***
Rz1    102    1020    Rideal    1e-6
Rz2    103    1030    Rideal    1e-6
Ibias    1020    1030    dc    0.33e-3
DzPS    98    1020    diode
Iquies    1020    98    dc    2.97e-3
S1    98    1030    106    113    Switch
R1    1020    99    Rideal    1e7
R2    99    1030    Rideal    1e7
e1    111    110    1020    110    1
e2    110    112    110    1030    1
e3    110    0    99    0    1
*
*
***Inputs***
S2    1    100    106    113    Switch
S3    9    101    106    113    Switch
VOS    1    2    dc    0.2e-6
IbiasP    110    2    dc    5e-12
IbiasN    110    9    dc    5e-12
RinCMP    110    2    Rideal    20000000000000e6
RinCMN    9    110    Rideal    20000000000000e6
CinCMP    110    2    5.7e-12
CinCMN    9    110    5.7e-12
IOS    9    2    2e-12
RinDiff    9    2    Rideal    20000000000000e3
CinDiff    9    2    2.2e-12
*
*
***Non-Inverting Input with Clamp***
g1    3    110    110    2    0.001
RInP    3    110    Rideal    1e3
RX1    40    3    Rideal    0.001
DInP    40    41    diode
DInN    42    40    diode
VinP    111    41    dc    2.96
VinN    42    112    dc    2.96
*
*
***Vnoise***
hVn    6    5    Vmeas1    707.10678
Vmeas1    20    110    DC    0
Vvn    21    110    dc    0.65
Dvn    21    20    DVnoisy
hVn1    6    7    Vmeas2    707.10678
Vmeas2    22    110    dc    0
Vvn1    23    110    dc    0.65
Dvn1    23    22    DVnoisy
*
*
***Inoise***
FnIN    9    110    Vmeas3    0.7071068
Vmeas3    51    110    dc    0