*************************************************************************************************
*************************************************************************************************
*
* DEVICE        : AL17050 - Diodes Incorporated
* DATE          : 19JUNE2020
* SIMULATOR     : PSPICE 16.6
* MODEL VERSION : 1.2
*
*************************************************************************************************
*************************************************************************************************
*
*DISCLAIMER: This spice model is PSPICE compatible, developed in ALLEGRO version 16.6.
*			 If this spice model is simulated in any other spice tool and any error is
*			 encountered, please contact our support team at the link below:
*			 https://www.diodes.com/about/contact-us/technical-support/
*
*************************************************************************************************
*************************************************************************************************
*
* DEVICE NOTES:
* Following features have been modelled:
* 	1. UVLO
* 	2. Short circuit protection
* 	3. Overload protection
* 	4. Open circuit protection
* 	5. Over Temperature Protection
*
*************************************************************************************************
*************************************************************************************************
*$
.SUBCKT AL17050 SOURCE VCC  FB DRAIN  PARAMS: Tamb=27 Vout=3.3 rtja=200
+ L2=1m RL=1.2 temp_change_rate=500u Vd=0.7
$CDNENCSTART_ADV2
17f62b1fb318c25603aeb85644ae98a5d179ef807807791f6459efacb9d7ffc37a831b146dc0f06bb1ef275619162e6d8f7ad0dc708bf15ae1a1d5bd0ae623b2
82ef0401a3d8b908f917d098bb2f8a6db2176fe99ff62a2c13e3fc838b98f1490f4b13fe35fb93976c311772d152e8763e91d927012e7191c6dae9477cc5b340
f40ba2d974166a2257032e0864419417a835008c3fa3e888d46f5ceef3f16ce5e101e8d5b2ec486679a53e803e8437224cc870f807a4bb749876d5f81d63b98f
b9eb897381c326314ee7fc4498dd1dfe82f4ca3c3202ac76f73d996f2e613b16dc4e628f57326f67cb5c1d9814fb1ecc5ca7c0a08c7b2c5b1925f5368fa810d3
01e5b74784dbe6f54b2a8b511911b85423e15c0f58b5f42b9f47bcf4997f82e0b693cab8f6c038436def22ab21942b98931e18cf542997209e3be82b4f288b77
d93cbcccd6edce7f7dd4fefc1b05d085ca223a0e35cc60bcd703536d34d7e48ae413c12348bab4158bac21a983ee59c536951681622b25cd3bfeaa01495987b7
386d9f7c1bbbc409b185555b5a941ecc2018aabaff60e04178fb50e2bc72bfac4fc2bfb571af220f25e0712ad6290d03ce3a1b5cde14ad202fa11d57771f4070
3afd1b3ef68ad224e01c14b1c4e2e01989e6b96e39fc7b99877752cfc77b862e37e99c1f53f9fe941b7c3497c7b0f4da520cc8ea7be19717ce1d76f31cf48874
ee72813c53ac37b7f2620a925d846b9fae7458c56cc347b04c394939dc8ecc9114df60da6f90911f66c9470268e1529b1ab0cd2ed8249a7cee3c4bcc33dfffc0
1cf040ba177f7d4211fdef43a11270e8dcba70e580eda035f2a38eac695d442896c6835286d951b60a5f2cfac4576c50f3a3bc8ca6be57c9ad831ecf221623b2
65a40851aafe8d3591e3b51543d22d53e81854a8de7628c0d1f378a13c0e591fd80c9a4c522df57f09caf71287b9d3205ca7c0a08c7b2c5b1925f5368fa810d3
01e5b74784dbe6f54b2a8b511911b85423e15c0f58b5f42b9f47bcf4997f82e0b693cab8f6c038436def22ab21942b98931e18cf542997209e3be82b4f288b77
42aa980c423b5bb753c61c0beff8192c6562abf0df0c4e90ca2270844c8d80127ad7a586fd40ce7c3684ff16e2147e8c4435dc57e84e253017d45b0ac9804e75
3bfeea828ee321434f286627cdb64534f4c291bbda289a97be6165d2513f3f689d1e236cc5e238f120eb47966ab2d5f5e82bdc8c67e94c9c953151fbac32226d
843af045bc8448b617d495d47b4d80432a3d4219f3fa389127b7a12ae7ed4693cca35af1c815f22a85d2d9870402dc29f3a3bc8ca6be57c9ad831ecf221623b2
d9f3fbeb72eb38849f591205a35af0e533cb967d2177508b0d06bca0fced660f7508d06d4471eda1bfe352242e88c9523d9326f97783391858dd57ce487b5683
3d2d2d2b6ad5ec317a816d9427afb90e2c4bd57920a9757857875533651fb3312195994e0c97fb58adec54002d19c922f629b675803d7f8320faa87cd0eeb636
bc8e064cc8c61cc608d2bb9fc43f46253a5dd35842de7ff83f01bcea2be1c21588124efe327044de3bc648eb2760e67d02e898fe92b1279f135242a457e6c187
cc186f56ccd016ce15d258e3d2f529127aaac292f04ff0a513552c30c6732706f782d06e11b89b496ebfc44f4bdc0d4ec49418d3f20b1a0d7469ba7ea9cdc1d5
15e92eacc115d0e67ea9d9852a93dd8393eadc236ee33380e9bac92445016791fed2c15c2d66f0cf5b4488612e5c130670a1fc4d58abde554a9cb14bd1624b99
3a48dc2c408a7408a1ce72738c63200adf894c885f5ff0a89f286e526fa2b5a4c457aca8db79bc6be9bafd30d75fecd01a3386d5cd620c887bf93f8c56724799
c5952d4e7cc94415487eb8ec988523bb39c04e1eb973102e6ec84d2dee292e008e48862c29ed22f30d518a2755131e24f73f42b4188f46cdabc846f71c3674ce
e329ebff6a9b7eecdb861d6d3fafe616d6ff94c796edfb02304feec230cadb10ec149932f9859827972eed7a59fc8dadaf17b9a3b5aa30d80afa5a6dd9000621
0af4f5e7808c7003441e8466576ddbf13eca5bc363b29db59bba23483ebfe9e35700a11328350e4a945697b27e43a306fff265d96f492601f72b00ef9d32a65f
6fe42cdd954d6a877293dfac76fecf2c20d99a564f737f564ed18a111fbdf93697c5e361ede35206b7277816b17bd3b8a04986597012a3727365321bb501ef54
1477454098cc4177984efee3ab0bcbb5197501afb4576c871b2012d82cb4966957c4e7d6ffdefee1ef29d389d6a354815ca7c0a08c7b2c5b1925f5368fa810d3
01e5b74784dbe6f54b2a8b511911b85423e15c0f58b5f42b9f47bcf4997f82e0b693cab8f6c038436def22ab21942b98931e18cf542997209e3be82b4f288b77
b38e11ffd1de4f72f9df4d94a61bdb04bb738523521b2db151a83410979a15957db5334276e06b2b53895dfe224fa13f224ff28cffe09ef0ce12cea0672d8b41
3e836bb123abafd3ab9428f7beebfb3a0df9e3baacc99010ef72c353b004c9f85d1a5079fb6789a6ca7135e188f8654aad8ee628e3317062594a3b0ac3c29c88
01ef2b8f8e79e5396bed98aac49012249be5ae5c40392af7fbb85ead00da3c8396c6835286d951b60a5f2cfac4576c50f3a3bc8ca6be57c9ad831ecf221623b2
7ec30cdfacce5e4b40d9110591c740f7a2f74541366df7c761df3d220f7a92eb7ab86c056ced58ce8a40f2887a5897615d9984e39ba9ef5d620842ca3c14ac35
6799db4af6df987fefbd838bad737d2c84192e7407d7eba5236dbaaacd8e0650a41c63ce17b79af3bd40dade7510db23aca41155de50bcb781bb2349f06bfc78
f0751d13d3ea69029b9b92373615012d5e4e7cda71d0dcd607018aa877b35ac0e186bbf6cccc565778a660b2b71d1c5e8aaad29e60e0484d1cd18e6f9d593059
b2fbbfedcdc15a234e026eaecb4b52107c1027972ff99a9a8a2340be13717c40864aa9b1a00ecdf63ff8f7a7b2e04383b6b65a221725c316547c4d381d4d7eb8
390c672ab02d35734846b904510e129571b44920ffd64504c3ed3ad90a871ee98e33687c17fd2643102b1c7887f9a1df959733aa85e325b3265d929bdda35b18
94cf621a34d5bc0848cfb80e59eaf3c37af62fac7243ae9a3a77794a011576e478ffa6c13c5faed927be49c57aad4cde3d0ed7465b3835ee432ae42cae128b1c
fbbefb8d0ddc2c4b042213d0f349dab1409c62c543ba74e54460353a227d7d9d245bc45fcb0801dbc3b51685181de19395c842f834a9b7c7410438d04a0cb6d1
804c9c9253c685311b1c1cc7b6f5b23a606a378f9fb373b56d20af18cea63b539b2760f71df9682cb2106213f6838af507c897271734855bb29551b32dceaf34
a32b0e9f408d0aa3fba2f89e21bf1e8ed746cb3c4e765a364b96f530a158e1057cd86882693de89810c49c483c50b79847af53b010cb3e48eece67118f602294
8bee0a4c57d7ae7ce7bd362ce0b48c2b7b9c72d16e7dfe5c06b18d0d85a1314cd127b2a7bfe620c787ee7412aa048f48007c100d05a03369d0331578b65b7330
a0549e295e0261b9ae9d4b581d0ee3d04bb372b5b2a4ddf3c9b46c73e31372e2972d1089e8700af0b9e77f2d0aba3f56820db98a17b5a8d048901e66c024a85d
67d71b1541353bc506461f3fe18bc9e22faba1bb10e3a57b9a5a46b168024e22f4c4d92c329f24d54f07ce231b6a50b102e898fe92b1279f135242a457e6c187
5a671e0d2946b1cddfc6492605e6a8c3e63b033b3d8d0c759a86b6927d8defaacca35af1c815f22a85d2d9870402dc29f3a3bc8ca6be57c9ad831ecf221623b2
5d8bc7032612a3a9a3d65b6416cd711b703a4b6b5a7bf800126c2ded1112a5889528baa4ed1d0a9f4c5a949ff97c70330adfc645a9d1d71426beaf184b5a455f
0ee5c0ae2951639dcc0596382e47b535c3c559b6b6b3d5e8ad2ba515173274019b2760f71df9682cb2106213f6838af507c897271734855bb29551b32dceaf34
5ffda7b4b3ee8f07fc12e3bdf4929cb52c4bd57920a9757857875533651fb3312195994e0c97fb58adec54002d19c922f629b675803d7f8320faa87cd0eeb636
85a61721fa0afb678be947a94215d9e868d8db7c1be34ea4e57319bbeed8517f96c6835286d951b60a5f2cfac4576c50f3a3bc8ca6be57c9ad831ecf221623b2
b11f3cf58002961ad2fd93e36f1e2a4d73baf2f9f9ba4d0690b1bd50b4f7e110f58dcb97cdcc42b5841aa3dfa66940c74e77cfe887ca117b050ea916fc7f86fc
ba894885595e50f7116fa5d24dcebe9ec3c559b6b6b3d5e8ad2ba515173274019b2760f71df9682cb2106213f6838af507c897271734855bb29551b32dceaf34
a5f040ec17cd007a842861cbb9010fdfc4318a82fdff5e170afa5808a0328fd50b13a97ead05e947d8ca518ed64a6f27dc35c7de3b22352567e07f923caf4b69
678dbc1d73cb77ecb2471e41fa526ee5c3676e71b7f2a38ef429ce22d34373618c9e5171245bf6040ec66fea284d489f1804e2fd4c048250291189f46f37f167
72b1ef218560de733b98122f12ef3ac90219d78da3955a4cc861f491be5f57db17d9b3298a0a61a003f59c65ff394e4e7498f719842844dbeca3ea6a79c42a64
a11be46f7c09522cad0c772a4a5a26e7de872b46379cb1f91fe11cd6eaa2f4757ab86c056ced58ce8a40f2887a5897615d9984e39ba9ef5d620842ca3c14ac35
f8dcc78a1c6a2a87f9bc6002932280d1362950f2f430ab8c3254f0106dcef079a5dcad4428f328f8c3780338c107223cce3a1b5cde14ad202fa11d57771f4070
a4c9756ad5ef47586e5e634a81d287acd8c14bb9c13c3883f6a12dfa46ddda45101369b0eccb00d7a998d10f39e76c750f814ea0890dbc336ed906df143e5113
0dd4cb9c644997c5ca660c1ce4f1e668bed00ade95a8abe60b4c1c02631d7d4896c6835286d951b60a5f2cfac4576c50f3a3bc8ca6be57c9ad831ecf221623b2
e5cba1495725fffca9e03cba4ed4b73f6b4b600af1511bb9e790deb59c6a838909a603f5b823b338ba6a1602029a85f7a060a9b6520bc83626c834a21c2205b6
6edda69400d9413e2e129c38a874c3b52153b103127bd0a76d22f40fb8b71171872a6403ed25c2d2a6753e7b3dd444653d9326f97783391858dd57ce487b5683
3d2d2d2b6ad5ec317a816d9427afb90e2c4bd57920a9757857875533651fb3312195994e0c97fb58adec54002d19c922f629b675803d7f8320faa87cd0eeb636
d70bb036feb8624789f44f66b1128b74911a84f262302724c4046cb1cc94f161c457aca8db79bc6be9bafd30d75fecd01a3386d5cd620c887bf93f8c56724799
53f35c78010e89abbd85ad75ce98b13b616a7e5c3b0e6af4ca1cb1e784fd56144fc2bfb571af220f25e0712ad6290d03ce3a1b5cde14ad202fa11d57771f4070
ffad0fad68177e399b9bd626d9fbbf2ab4c70ee447a9d7b6a59568128b56716e4fc2bfb571af220f25e0712ad6290d03ce3a1b5cde14ad202fa11d57771f4070
e48802e8a62e74865f62fca524fe0d2ec78977a7429e7c1164d08e4b0c3fa616d2bde990739c9aeaa89d2c26503dabc9f73f42b4188f46cdabc846f71c3674ce
e329ebff6a9b7eecdb861d6d3fafe616d6ff94c796edfb02304feec230cadb10ec149932f9859827972eed7a59fc8dadaf17b9a3b5aa30d80afa5a6dd9000621
90a9b6f6efd6647438631dc935ff2dcccd45f63812231f0fb826b513a9d8f91f36152a1f2e032206ca2d0d1daff1342302e898fe92b1279f135242a457e6c187
021db102abf973fdc23d907f56598e65830d94e65cebf6dd27320b302ea2306f2efa7047c0d82b31e426b888f1dc8cb1007c100d05a03369d0331578b65b7330
5928e0c33e60e2cd17fc8df0edc50ffa6774c6a7d6c659d829258e283f7751a87c1027972ff99a9a8a2340be13717c40e0f07922b762b8bb98cc0bf5df73e13f
68fd1e826a01132e1dd1ed4fe190dd02baff4cf1bf192ea948504f90e02124ae6b693847b22b064d8b41bbb19bb53b4830915062b4597a9fc169f9b6c155b475
804c9c9253c685311b1c1cc7b6f5b23a606a378f9fb373b56d20af18cea63b539b2760f71df9682cb2106213f6838af507c897271734855bb29551b32dceaf34
4a08685286b20f605fd64f72a4132c7f17002a5e77c78d5288c02ca2a5fa95ff080804ea1694cff5f448fff3d20ce6c4ec398d2a3fa7cd11879d471b49143e44
db1370c70840127148f238ee866dd857c3c559b6b6b3d5e8ad2ba515173274019b2760f71df9682cb2106213f6838af507c897271734855bb29551b32dceaf34
a13b4f763ece7fc3e06e2852f5a08082df050977be0b7f2e100f50cf1075972c5a12fe9ce5fb0c8397f53365e3f7a1a1ad12a9fe4c6a8735df078d2c2c000d08
2343f55e701903f65e92e0ce666516abd7bd9605edfb4591f0bbf1c9fb0795a93bb79af250b3f541d7cf35c6a36ff40495c842f834a9b7c7410438d04a0cb6d1
804c9c9253c685311b1c1cc7b6f5b23a606a378f9fb373b56d20af18cea63b539b2760f71df9682cb2106213f6838af507c897271734855bb29551b32dceaf34
16b549b769762862dbcc975fea74204b2fcd7b9007bb9dfef17c7e09b58239ce03211c50f044e881ae0ae0884de6f8d647af53b010cb3e48eece67118f602294
906cb149bfac12c517927b7388a7f0d1a906124d2c5115994227943ce74c261a4fc2bfb571af220f25e0712ad6290d03ce3a1b5cde14ad202fa11d57771f4070
bd1e834ed6afa00491b73d7e1f344583a446e441a530a2105700b7438c5e0a6ecfc926a7e555c39c92bdd5ae8f03b0a6ac15bcd7a1be7c96f641ce7007acda2b
7e38a49b6cdf28827eaa38e512ca3b062f2c01de71b1cb247db77fb729873fd494ceb5a412d38c8890381ad93030811d45b9bcfafd336838b9b8503148cb3b25
cd10e2a13319f8776a2248b72084e384c4318a82fdff5e170afa5808a0328fd50b13a97ead05e947d8ca518ed64a6f27dc35c7de3b22352567e07f923caf4b69
9c7241c6bf19f5215ddfd735cd5f3807dbda90cd5ae6aac039ad15c170087318def59adc7f419f2fc385f645fb33c929263a6acf33e3073ab54f35564428d2e7
05556717239c7a8896720c08f75846fa2c4bd57920a9757857875533651fb3312195994e0c97fb58adec54002d19c922f629b675803d7f8320faa87cd0eeb636
7278e9955ad57a95414fa957e5946938a178d12a17de4d1bb1293d28db48aae1d127b2a7bfe620c787ee7412aa048f48007c100d05a03369d0331578b65b7330
8bc521361aa5e8653afd1e68fc774db79ae050759d4fddde24df9cafaf2b35c8f0a911078f1d44f2a56d512e630b69c34435dc57e84e253017d45b0ac9804e75
05b8d3c422b83caad01356da504ae1bbe76de082b9b12cde28eb3c2e1a27e94ec457aca8db79bc6be9bafd30d75fecd01a3386d5cd620c887bf93f8c56724799
0b24f34b2dbdf5705cdaf0824482fa9b7498624feedb85a3e492e9ac7778c850e85effcc692357112e254c567fec7443ad3b88fdf1b341d61db151a91971ffa9
f770408976e609453796f184a0936cabf2b58c3393130016dd42c43e99c89bc7154b8a5d2a17b2b2a1bb912d1a245d59cc60c5eeb4ea72186c762e78ea4e31f8
dab0bc9d0a0ae3ffc717547a5b47973a00c572c6b10c053c69242f712ad74a87a5dcad4428f328f8c3780338c107223cce3a1b5cde14ad202fa11d57771f4070
4101c99d3191793802ffa6aedf0f9b1a51311d765fde944369478976888c6ef40b7a7bb2474caa7dcf7f5e1e0e9a0ae0567be73fd60e8b57924cfe32288bf80c
04501f244fd88c972a0839b13d848d6168c3a6a41f7927f5daa807e24b402c89622b9b7ded7d4e96b18715b329a21016656d10ef4229c23e1be14b040cdb7f2f
d0b6e2f24f51d5cdcc9110774a0bc336c5ca4bf6ad2e8622372790c7802d3c407ab86c056ced58ce8a40f2887a5897615d9984e39ba9ef5d620842ca3c14ac35
2bedbbd7de859f307fff3abb366fa2642c212b5a9f5795be9347f13af04545464fc2bfb571af220f25e0712ad6290d03ce3a1b5cde14ad202fa11d57771f4070
5a7ad6a3898b6f327c0f9f3b2a564a928bf62660593a0361a33215d7d2ba2535e1226a0b4e2577a4cf73b71e891ea38ad4bd6f4d25a21d94f912f6f5593ae450
7ce53e74bc21e4138e496fa2ad3b1de78430adeb9393d96c61630420922a27a764b74b6ed81094095b37be28b451d047713d93dfea4ff90740684d2992f85052
03e15c4ee012c5a0be6faad52816e8220219d78da3955a4cc861f491be5f57db17d9b3298a0a61a003f59c65ff394e4e7498f719842844dbeca3ea6a79c42a64
43b559431378078266fbaf527664a949606a378f9fb373b56d20af18cea63b539b2760f71df9682cb2106213f6838af507c897271734855bb29551b32dceaf34
6adb762fe56aa65494f18ab75fb47c3f09664041c2e1bd20b8a59e832d031c8ae85effcc692357112e254c567fec7443ad3b88fdf1b341d61db151a91971ffa9
ae94f120ae61239e829a7d9469c01f030fe72bacfd55ebd4c0e58b5c01837099cc1b3298e8dc5b03aff2ade90a6086afd8bc47002251d622b8728d0fc8f9b3bb
a39b0c241b0e2066c13d206d792f2dc5df050977be0b7f2e100f50cf1075972c5a12fe9ce5fb0c8397f53365e3f7a1a1ad12a9fe4c6a8735df078d2c2c000d08
31c6e1b097ef4e9308e7b3de721dfe3b41a10051f3f0b6dab254feeee05be8e97257a1d3fb8d24f1cfad58ccaa43b881a7b241d1dc3b014b42d7c263b355684d
69bc57e9181e47bdfcded520644ff39e25103d93d860c4567b31a38978c4e713973022c193fdb3a217452dec35e635cbd6514ec406ab639399f905c2b2e3cc9e
d0d4d9e7e932f00698ce2e84216c9733d91cf16da8b5e05c6b28f3b2ea07a57879312988b26bea8a6fe97a47938d2e95ea6f9c2fdf7977181abc0907e378044c
51998ae7c0013f33a1dd705aa6724cdb99cfa9ea07b0b958262da155cab4a4674fc2bfb571af220f25e0712ad6290d03ce3a1b5cde14ad202fa11d57771f4070
f33910abc4499a5d38b2600e786250fcd4a9ee041a1d0c91287d29f6aa8e47237687bd98e3f6c281c616d2bf09df58e90099f4e58a2dd7edb83f20f405d89b7f
d5eae6806ff4e9cff58a94af2ed069a613f85b65a750af8784c62f3f16ba38703af29bde31f7d671a91d96da8e834d78182ea2243cea5a08d395700668a1c84a
54c1d697abe32262a07df017f76803fee9b3a6abebf838b9aa456591347b307cf782d06e11b89b496ebfc44f4bdc0d4ec49418d3f20b1a0d7469ba7ea9cdc1d5
3607f5bf81e0b4972152a37a19ad3479e0597871eb61433c406f327676b916cd7c42c6b440f33b3871a8dc81837afcf41a3386d5cd620c887bf93f8c56724799
22e7f44462db70786abac5b5516d04223c861fc3606c0b9601acf43f8575b1bfe413c12348bab4158bac21a983ee59c536951681622b25cd3bfeaa01495987b7
6f8bc72198af8775364f944df301e13275a24c60c63b73e0cd425c345a0c367f27282bf8dc4acbef5913d11ea80703c46e4f46f5efd61068e373ea6dc7c89d94
458affe61d1a9ed6c250a431b0ee15a882e1e3e243ba0cbb546a13125a7bfa1e8992fa2c57911f3701dd3f094fd9286f89aed2d8d18c9d0dc680e43901dd51aa
d9ae37a7bb77433a3d90212168576b66ff5a30a6cc48a9df09a8c2e6bd9b863669fa9c968816eac70259831ed8475aa6d85f4e32d487fe341df7f4b47c75c250
27fc263a061731e34bdbda225e32ca4950e42e1bc2a399307da70406d03996a31b493167c8436cdef014d6f8f251ef6249746feef839d344bd2c747722a5d070
666cd8cff941ea4c20a1b9d9669b6038fa4002708ae6043a9dfa3ff8e2846ecc7ab86c056ced58ce8a40f2887a5897615d9984e39ba9ef5d620842ca3c14ac35
64e9ad3900dc3e96b4e3c19211bc47f8741ddb3aa47572af2dd9d3205f6fc70996c6835286d951b60a5f2cfac4576c50f3a3bc8ca6be57c9ad831ecf221623b2
b56760a59355280f04f3ac3809d29fe4a79fc35be82316434c9bdb2ef3abc60ac457aca8db79bc6be9bafd30d75fecd01a3386d5cd620c887bf93f8c56724799
a62384643339bc913138ab6a5a999d622d31c7df6d48130c60d4a333326f05b8ba9f54d6f094d739ea7588288523639402e898fe92b1279f135242a457e6c187
675ca457b73a1f6efa3f9e1ed9ad7f7cb3b1a3e151970eb178191b9c9a65de316da92a0f7b3b41d2e7585442caafd52645b9bcfafd336838b9b8503148cb3b25
cd10e2a13319f8776a2248b72084e384c4318a82fdff5e170afa5808a0328fd50b13a97ead05e947d8ca518ed64a6f27dc35c7de3b22352567e07f923caf4b69
610666ad6145efd4e930a46c3d871d761dcab2860a9a49f35b79934ff1e4933472e5f775dcfd2225ca27ffa7a54f47914435dc57e84e253017d45b0ac9804e75
fb029364f79e14ba19c60c781df5f1d8ace9ee18cdee0472d1df537a3ab2e4c2c8cbe87f65f8e884ee7b76750a0ed88202e898fe92b1279f135242a457e6c187
33fd4da4cc1115c587c873cfccb724aefbe905b2e2a6b974e80c9d0debcaa94b96c6835286d951b60a5f2cfac4576c50f3a3bc8ca6be57c9ad831ecf221623b2
73317b4dda786b2f82aa84580684ce708398e20ebc50aa7ad3ecb9495eecc7d37859b06829413cfaeb750690dad5298b05cc9650347a205d3eb2a00ccbd67074
1dae2ee8a71c293d0a33fecb58c94d25d91cf16da8b5e05c6b28f3b2ea07a57879312988b26bea8a6fe97a47938d2e95ea6f9c2fdf7977181abc0907e378044c
136228f7ff03fc7e507e95211d82858e4692ff1e4df22beb76f5509eb1dbba2d613e06338a08fce01e5a0034d23dae48a04986597012a3727365321bb501ef54
ea1ddfc349dd097d2a64e3585c4cb129f4ab4182fd84b31283cc05fb4828d875d5dee427c4ce0b3f8a7a2cabf998a44259cb8060b51e41da27ec2f6e84b754b3
59d1bb9d9f22ea433f7e99020a83ce1cecdad2a71a99be8eca6dfb01a13cde8523fbc2a86f2dbc2a0a100434876e5ef95d9984e39ba9ef5d620842ca3c14ac35
43ec93763efd62005baf4e815de7739c19ff3ebbeea1aae4ff66716f239a323fe413c12348bab4158bac21a983ee59c536951681622b25cd3bfeaa01495987b7
0056818875cd62d0c2740a0910262123ae72d29644067829968700e0b5f64813bbd7d36037391d4d7108fc6afbbf10c802e898fe92b1279f135242a457e6c187
65cb1fba561534462e3b2c7b9d01046209923dc6de6a32b42b2c75b6a90ac3fae40ee2adc2881d13f559b9b03051ec321a3386d5cd620c887bf93f8c56724799
67e0530fabd5351e5b85d278c5578819023a383e2bca9fbce153f746baf701fd53dec29bd5ee4586be076d57ee97da1c007c100d05a03369d0331578b65b7330
595d77b62261bc92194831c567269e761ec9e63ec591576765f292eeafc7d87a5fff6eec6b83d1c59d9e6b0421b36e663c9442565b69e3661943290ebd356f9d
$CDNENCFINISH_ADV2
.ENDS AL17050
*$
.subckt SCHEMATIC1_H1 1 2 3 4
$CDNENCSTART_ADV2
17f62b1fb318c25603aeb85644ae98a5d179ef807807791f6459efacb9d7ffc37a831b146dc0f06bb1ef275619162e6d8f7ad0dc708bf15ae1a1d5bd0ae623b2
39b374b4dc658f29afcd627aa67aba1422fef12e724b30424075252b3146e24ad91cf16da8b5e05c6b28f3b2ea07a578fbf05cb01584a530789fedd4f42fad2e
95f68ceb9514f8c962dd1c36ad7e9a6a615186be3221f7979e33fca601ea5df82c4bd57920a9757857875533651fb331bc2fa7479fd3a54e0368e453f180aced
$CDNENCFINISH_ADV2
.ends SCHEMATIC1_H1
*$
.subckt SCHEMATIC1_S1 1 2 3 4
$CDNENCSTART_ADV2
17f62b1fb318c25603aeb85644ae98a5d179ef807807791f6459efacb9d7ffc37a831b146dc0f06bb1ef275619162e6d8f7ad0dc708bf15ae1a1d5bd0ae623b2
c930e37300f38a9bbe60866f21c99b5bae8ab0fd91ce1569a3682049306ea59fd91cf16da8b5e05c6b28f3b2ea07a578fbf05cb01584a530789fedd4f42fad2e
a02aa796df6e417d0f6c80e0abb26babc6f2b20c1d75202b9ba49c8ebe70caad2c4bd57920a9757857875533651fb331bc2fa7479fd3a54e0368e453f180aced
f4672e0e4353f22ac0200a4fd8e7440623f64c61477cffce5a4537b2834df8b94aa52450ea0671beb15edab79672ccfbfd73877f9f301fabe56c6d9105aa26d8
$CDNENCFINISH_ADV2
.ends SCHEMATIC1_S1
*$
.subckt SCHEMATIC1_S18 1 2 3 4
$CDNENCSTART_ADV2
17f62b1fb318c25603aeb85644ae98a5d179ef807807791f6459efacb9d7ffc37a831b146dc0f06bb1ef275619162e6d8f7ad0dc708bf15ae1a1d5bd0ae623b2
2d1d8bd03dd9909681fa0944a919b9034bec2ec9b095cd5abb117d9151af78b17c1027972ff99a9a8a2340be13717c40e0f07922b762b8bb98cc0bf5df73e13f
16f0a76c16c5d5731ce9726d09074e3679512d0b4e490d79e00530ead0d45f490df9e3baacc99010ef72c353b004c9f8e59cc9d4cb1a4ff08b4ae42500dad4b6
f4672e0e4353f22ac0200a4fd8e744064f10d05e1146ddfc077863336ba87d50592cb5f6757039bacb8450ed697efd6065647ab0c2f0efa1c7084c823a880675
$CDNENCFINISH_ADV2
.ends SCHEMATIC1_S18
*$
.subckt SCHEMATIC1_S6 1 2 3 4
$CDNENCSTART_ADV2
17f62b1fb318c25603aeb85644ae98a5d179ef807807791f6459efacb9d7ffc37a831b146dc0f06bb1ef275619162e6d8f7ad0dc708bf15ae1a1d5bd0ae623b2
635cc37bc0ecc13f83f7a79c47e402fb5e34b838206c2d397e059ba93c72c959d91cf16da8b5e05c6b28f3b2ea07a578fbf05cb01584a530789fedd4f42fad2e
35ad2018d63f2e7bded18b1795c583f3c6f2b20c1d75202b9ba49c8ebe70caad2c4bd57920a9757857875533651fb331bc2fa7479fd3a54e0368e453f180aced
f4672e0e4353f22ac0200a4fd8e74406d25c429948117e3c28cb0440048d9fd73e6fcd911d8d4753a0cfab5284b7df9086ad24a17bded7d289b4880e9f005965
$CDNENCFINISH_ADV2
.ends SCHEMATIC1_S6
*$
.subckt SCHEMATIC1_S20 1 2 3 4
$CDNENCSTART_ADV2
17f62b1fb318c25603aeb85644ae98a5d179ef807807791f6459efacb9d7ffc37a831b146dc0f06bb1ef275619162e6d8f7ad0dc708bf15ae1a1d5bd0ae623b2
3548f728642e86b1be862d2e095a0e2f433c48ed069e7c7850d6993d90bf81d67c1027972ff99a9a8a2340be13717c40e0f07922b762b8bb98cc0bf5df73e13f
b3aed75e807515337e8a58ad947d4a4d79512d0b4e490d79e00530ead0d45f490df9e3baacc99010ef72c353b004c9f8e59cc9d4cb1a4ff08b4ae42500dad4b6
f4672e0e4353f22ac0200a4fd8e74406e1df21e03289d622b5f0f7f3f50e845a592cb5f6757039bacb8450ed697efd6065647ab0c2f0efa1c7084c823a880675
$CDNENCFINISH_ADV2
.ends SCHEMATIC1_S20
*$
.subckt SCHEMATIC1_S8 1 2 3 4
$CDNENCSTART_ADV2
17f62b1fb318c25603aeb85644ae98a5d179ef807807791f6459efacb9d7ffc37a831b146dc0f06bb1ef275619162e6d8f7ad0dc708bf15ae1a1d5bd0ae623b2
4da97d76c1afbd8c3596871b62b69c1d68611734593a5e78c37cd2dad5b7c68ad91cf16da8b5e05c6b28f3b2ea07a578fbf05cb01584a530789fedd4f42fad2e
3d5503501c8c91a86bb9d85d57dfdd16c6f2b20c1d75202b9ba49c8ebe70caad2c4bd57920a9757857875533651fb331bc2fa7479fd3a54e0368e453f180aced
f4672e0e4353f22ac0200a4fd8e74406dee203cd259f715c147f2c6cfbecf5be3e6fcd911d8d4753a0cfab5284b7df9086ad24a17bded7d289b4880e9f005965
$CDNENCFINISH_ADV2
.ends SCHEMATIC1_S8
.SUBCKT COMP_SAN_1  INP INM VOUT PARAMS: VDD=1 VSS=0
$CDNENCSTART_ADV2
17f62b1fb318c25603aeb85644ae98a5d179ef807807791f6459efacb9d7ffc37a831b146dc0f06bb1ef275619162e6d8f7ad0dc708bf15ae1a1d5bd0ae623b2
51613e447e1624466cd3df65c032be78cc9cb80d43545f4b30a692375dcffdc1da82da287127d5ca6b9ffc9dfd6be51996e0da0fb5af1b9f8a57445672108a4a
afec6c968a18851cb7bf52e467b7cd8b7ab86c056ced58ce8a40f2887a589761d6ff94c796edfb02304feec230cadb1076f789be361819b35ec22f54f7aefb1b
583557f2f87d1483dbbf8936f219d17168c3a6a41f7927f5daa807e24b402c89622b9b7ded7d4e96b18715b329a21016656d10ef4229c23e1be14b040cdb7f2f
$CDNENCFINISH_ADV2
.ENDS COMP_SAN_1
*$
.SUBCKT DIODE_SAN_1  1 2
$CDNENCSTART_ADV2
17f62b1fb318c25603aeb85644ae98a5d179ef807807791f6459efacb9d7ffc37a831b146dc0f06bb1ef275619162e6d8f7ad0dc708bf15ae1a1d5bd0ae623b2
e6c7aba9546ac9fe5dd08503f3e7750ce111d9f411691191dac71579af6adc1bb40dc3b4145e7984d21845a40f7c6cb401a9bd932a74605e84f8f2582b933724
4dc80613b1c66dc43a47461507c45bb3ab3ddc26c02fa554fcbbab3ef0389c0c1d4e5b3adf2b06b3b686edb2cefd9981ce3a1b5cde14ad202fa11d57771f4070
$CDNENCFINISH_ADV2
.ENDS DIODE_SAN_1
*$
.SUBCKT DIODE_SAN_22  1 2
$CDNENCSTART_ADV2
17f62b1fb318c25603aeb85644ae98a5d179ef807807791f6459efacb9d7ffc37a831b146dc0f06bb1ef275619162e6d8f7ad0dc708bf15ae1a1d5bd0ae623b2
e6c7aba9546ac9fe5dd08503f3e7750ce111d9f411691191dac71579af6adc1bb40dc3b4145e7984d21845a40f7c6cb401a9bd932a74605e84f8f2582b933724
4dc80613b1c66dc43a47461507c45bb3630c7a47530cf52bbfd437d210b1e2935d5ce7e76b85d6d42cac1868f4870fe5a95077399ce61b84aff4b00a6e43b0f7
$CDNENCFINISH_ADV2
.ENDS DIODE_SAN_22
*$
.subckt COMPHYS2_SAN INP INM HYS VOUT PARAMS: VDD=1 VSS=0
$CDNENCSTART_ADV2
17f62b1fb318c25603aeb85644ae98a5d179ef807807791f6459efacb9d7ffc37a831b146dc0f06bb1ef275619162e6d8f7ad0dc708bf15ae1a1d5bd0ae623b2
2be7515a1a974ce25fe7d7195d05c51cbeed0b638a5eb9a971e848253183379961f27caf84c533197e0a0d566075871b5d9984e39ba9ef5d620842ca3c14ac35
4fc3666273ffb2303e1dd0258b5743fe4692ca5fe9131ffb03712e35b4a6691020e563c8d83407c64e729ffd241ecddaaa1e9320bc78a4bfa7d0615693ec8990
38995bc074afa07b095e24082dd0bce4cdcf8ee2c994aa5e0a4745dbfe89e37d5badb5671deffeb1872ce7aa53788ce99b16c74e828a3b40ca492a2168f66005
afec6c968a18851cb7bf52e467b7cd8b7ab86c056ced58ce8a40f2887a589761d6ff94c796edfb02304feec230cadb1076f789be361819b35ec22f54f7aefb1b
ce7b999107c217021223140254ce6c1568c3a6a41f7927f5daa807e24b402c89622b9b7ded7d4e96b18715b329a21016656d10ef4229c23e1be14b040cdb7f2f
$CDNENCFINISH_ADV2
.ends COMPHYS2_SAN
*$
.SUBCKT MINIMUM_ON_TIME IN OUT PARAMS: MIN_ON_TIME=20n VDD=1 VSS=0
$CDNENCSTART_ADV2
17f62b1fb318c25603aeb85644ae98a5d179ef807807791f6459efacb9d7ffc37a831b146dc0f06bb1ef275619162e6d8f7ad0dc708bf15ae1a1d5bd0ae623b2
309f5cb216a812f4294e27bff8b46c48059ea35a90c2aa91bb48626562679012d127b2a7bfe620c787ee7412aa048f48007c100d05a03369d0331578b65b7330
905d71f68178c4947d3e5c7ce0b4725169c67c502e17732be203339f84240ee4d127b2a7bfe620c787ee7412aa048f48007c100d05a03369d0331578b65b7330
162857348b415dfe92f0e03f1741bc30ba32a904832987a5d0793c5ebbc007d80219d78da3955a4cc861f491be5f57dbc0fd704771bae3897d11c75f9b37f896
1da058389e34c6086af3299f6b86c992980cecf639cf0a0e727d79597ca5aec257613ff0a9dddf9e6c5cc6280f3a43513002e908ecde1669736ec54c84210ecf
06505942ae66c9f88b2f9aafc92d11edca85fb39cb1e816c5ebc1077ab532a92a7dba136455979f21c4cd68beaa889eb4ac678d918905849843d1666f459160e
61f27caf84c533197e0a0d566075871bd6ff94c796edfb02304feec230cadb10ec149932f9859827972eed7a59fc8dadaf17b9a3b5aa30d80afa5a6dd9000621
0a08ab2c9a2f858fc830ee155fd947bc03bf20f16cc53d1286d05b8465e84d2f9853630bb5c11219049dc99259176d94aee92bfb12384ab886e4adba86014060
089457c6210e018d1021cae5f0180eedc3c559b6b6b3d5e8ad2ba515173274019b2760f71df9682cb2106213f6838af507c897271734855bb29551b32dceaf34
5ffda7b4b3ee8f07fc12e3bdf4929cb52c4bd57920a9757857875533651fb3312195994e0c97fb58adec54002d19c922f629b675803d7f8320faa87cd0eeb636
57c3869b66cc24546a7271060e9e38467031f2c3f6706c9aedc6be8b26934b262a2e1ba968876d67e47086d202bec6a662949bffe90ed4f6c60ca31f672b3b4d
d6dcade8e59f935c28a72d66b15c179c3f3c542a9fe1a51d860b8c797780856748834e0370f23e029fd97ea7b854b9585541533a15e9d70ef9133b95ab0907dd
ea58499608f17f8956136828d13832ea606a378f9fb373b56d20af18cea63b539b2760f71df9682cb2106213f6838af507c897271734855bb29551b32dceaf34
a5f040ec17cd007a842861cbb9010fdfc4318a82fdff5e170afa5808a0328fd50b13a97ead05e947d8ca518ed64a6f27dc35c7de3b22352567e07f923caf4b69
20bf28a301f45fa87bb4fe9fdf9787aa3df1c812134374dbd8a0db2d4bf5d8d84580532f998913d02c60f2e015ffc90b02e898fe92b1279f135242a457e6c187
3a1e49c6a7952930300826a00dde0ef1bc59ee9fc8030a86d690c8fbc3785b1f23e15c0f58b5f42b9f47bcf4997f82e023a355d22708dcc0487aefc9d1839714
$CDNENCFINISH_ADV2
.ENDS MINIMUM_ON_TIME
*$
.subckt MOT_COPY_S1 1 2 3 4
$CDNENCSTART_ADV2
17f62b1fb318c25603aeb85644ae98a5d179ef807807791f6459efacb9d7ffc37a831b146dc0f06bb1ef275619162e6d8f7ad0dc708bf15ae1a1d5bd0ae623b2
c930e37300f38a9bbe60866f21c99b5bae8ab0fd91ce1569a3682049306ea59fd91cf16da8b5e05c6b28f3b2ea07a578fbf05cb01584a530789fedd4f42fad2e
a02aa796df6e417d0f6c80e0abb26babc6f2b20c1d75202b9ba49c8ebe70caad2c4bd57920a9757857875533651fb331bc2fa7479fd3a54e0368e453f180aced
f4672e0e4353f22ac0200a4fd8e7440623f64c61477cffce5a4537b2834df8b9e2a83b1c978b280ba92bf0b3598a352986ad24a17bded7d289b4880e9f005965
$CDNENCFINISH_ADV2
.ends MOT_COPY_S1
*$
.SUBCKT INV_SAN IN OUT PARAMS: VDD=1 VSS=0 VTH=0.5
$CDNENCSTART_ADV2
17f62b1fb318c25603aeb85644ae98a5d179ef807807791f6459efacb9d7ffc37a831b146dc0f06bb1ef275619162e6d8f7ad0dc708bf15ae1a1d5bd0ae623b2
8046e191cb63d9c177c73943c76c51d7c03fe9e00a542b50d9fc6c0f229fb826ba29f5d90095bdb3a12b460b8289599f7dde5c7c9afcc73ba278de9c4ae981aa
cab471bf8cdd4f9667ecf55571038a25e111d9f411691191dac71579af6adc1bb40dc3b4145e7984d21845a40f7c6cb401a9bd932a74605e84f8f2582b933724
6c4fd3683a1518c4117402307b10455b0219d78da3955a4cc861f491be5f57db17d9b3298a0a61a003f59c65ff394e4e7498f719842844dbeca3ea6a79c42a64
$CDNENCFINISH_ADV2
.ENDS INV_SAN
*$
.SUBCKT ONE_Shot IN OUT PARAMS: ON_TIME=20n VDD=1 VSS=0
$CDNENCSTART_ADV2
17f62b1fb318c25603aeb85644ae98a5d179ef807807791f6459efacb9d7ffc37a831b146dc0f06bb1ef275619162e6d8f7ad0dc708bf15ae1a1d5bd0ae623b2
309f5cb216a812f4294e27bff8b46c48059ea35a90c2aa91bb48626562679012d127b2a7bfe620c787ee7412aa048f48007c100d05a03369d0331578b65b7330
905d71f68178c4947d3e5c7ce0b4725169c67c502e17732be203339f84240ee4d127b2a7bfe620c787ee7412aa048f48007c100d05a03369d0331578b65b7330
162857348b415dfe92f0e03f1741bc30ba32a904832987a5d0793c5ebbc007d80219d78da3955a4cc861f491be5f57dbc0fd704771bae3897d11c75f9b37f896
1da058389e34c6086af3299f6b86c992f85cb4076fabfb0dde87fdafb3e0e60d387367f923d1f38c524683d2c3cefb0a860f245f4d1e0f177ce09612be1b3b41
06505942ae66c9f88b2f9aafc92d11edca85fb39cb1e816c5ebc1077ab532a92a7dba136455979f21c4cd68beaa889eb4ac678d918905849843d1666f459160e
61f27caf84c533197e0a0d566075871bd6ff94c796edfb02304feec230cadb10ec149932f9859827972eed7a59fc8dadaf17b9a3b5aa30d80afa5a6dd9000621
0a08ab2c9a2f858fc830ee155fd947bc03bf20f16cc53d1286d05b8465e84d2f6f62424b2bb2a8888f2c65b332b8355b6bd1ee96224544a5b6e1cc9fb8911605
de1b7123c320ee09e77c4ebd18d76b71ff5a30a6cc48a9df09a8c2e6bd9b863669fa9c968816eac70259831ed8475aa6d85f4e32d487fe341df7f4b47c75c250
5ffda7b4b3ee8f07fc12e3bdf4929cb52c4bd57920a9757857875533651fb3312195994e0c97fb58adec54002d19c922f629b675803d7f8320faa87cd0eeb636
57c3869b66cc24546a7271060e9e38468cf98463eaab13780a59d8ec80d01216727db3f32ab8a64f2b994a2757829d23fff265d96f492601f72b00ef9d32a65f
d6dcade8e59f935c28a72d66b15c179c3f3c542a9fe1a51d860b8c797780856748834e0370f23e029fd97ea7b854b9585541533a15e9d70ef9133b95ab0907dd
ea58499608f17f8956136828d13832ea606a378f9fb373b56d20af18cea63b539b2760f71df9682cb2106213f6838af507c897271734855bb29551b32dceaf34
a5f040ec17cd007a842861cbb9010fdfc4318a82fdff5e170afa5808a0328fd50b13a97ead05e947d8ca518ed64a6f27dc35c7de3b22352567e07f923caf4b69
20bf28a301f45fa87bb4fe9fdf9787aa3df1c812134374dbd8a0db2d4bf5d8d84580532f998913d02c60f2e015ffc90b02e898fe92b1279f135242a457e6c187
3a1e49c6a7952930300826a00dde0ef1bc59ee9fc8030a86d690c8fbc3785b1f23e15c0f58b5f42b9f47bcf4997f82e023a355d22708dcc0487aefc9d1839714
$CDNENCFINISH_ADV2
.ENDS ONE_Shot
*$
.SUBCKT RS1J 1 2
$CDNENCSTART_ADV2