*
*	VACTROL			Date: 02/07/2004
.subckt Led_Ldr A K Ldr1 Ldr2
R2 Na 0 1
B1 0 Na I=I(Dled)*1k
Dled A K QTLP690C
C1 Nb 0 1n
G1 0 Nc Nb 0 Table=((0,1e-3) (0.003,1e-3) (0.01,5e-3) (0.02,14e-3) (0.04,33e-3) (0.1,1e-1 (0.3,0.25) (0.6,0.45e) (1.0,0.65) (1.5,0.85) (2.0,1) (4.0,1.5) (6.0,1.8) (8.0,1.95) (10,2))
R3 Nc 0 1
B2 Ldr1 Ldr2 I=1m*V(Nd)*V(Ldr1,Ldr2)
C2 Ldr1 Ldr2 10p
C3 Nd 0 10u
R5 Na Nb 1k
R1 Nc Nd 5k
B3 Nc Nd I=sqrt(abs(V(Nb,Nd)))*V(Nb,Nd)*1m
.ends
*	Solinex NSL-32SR2	Date: Apr 4, 2011
.subckt Nsl32Sr2 A K Ldr1 Ldr2
R2 Na 0 1
B1 0 Na I=I(Dled)*1k
Dled A K QTLP690C
C1 N1 0 1n
R3 Nc 0 1
B2 Ldr1 Ldr2 I=1m*V(Nd)*V(Ldr1,Ldr2)
C2 Ldr1 Ldr2 10p
C3 Nd 0 1µ
R5 Na N1 1k
R1 N2 Nd {Rf}
B4 0 Nc I=log(V(Nb)+1)*6
CjoD1 A K 50p
Voff Nb N1 33.33µ
D2 Nc N2 D
R4 Nc Nd {Rb}
.model D D(Is=3.5n N=1.9)
.param Rf=10k
.param Rb=1/(1/5k-1/Rf)
.ends
*	Vactrol VTL5C2/2.	Mfg: Perkin-Elmer.
.subckt Vtl5c2_A A K Ldr1 Tab
B1 Tab Ldr2 I=if(V(l1)>0,V(Tab,ldr2)/RLdr(V(l1),b,a,Rs),0)
Rdark Tab Ldr2 1e6
C1 l1 0 100n
C2 Tab Ldr2 3.5p
D1 nd N1 Dsw
R2 N2 l1 35k
D2 N1 N2 Dsw
D3 A N3 QTLP690C
H1 N1 0 Vs 1
Vs N3 K 0
B2 Ldr1 Tab I=if(V(l1)>0,V(Ldr1,Tab)/RLdr(V(l1),b,a,Rs),0)
Rdark1 Ldr1 Tab 1e6
C3 Ldr1 Tab 3.5p
B3 l1 nd I=V(l1,nd)**1.4/22.5k
.model dsw D(Ron=1 Roff=1G Vfwd=0)
.param b=3.156 a=1.197 Rs=264.7
.func RLdr(i,b,a,Rs) {b/i**a+Rs}
.ends
.subckt Vtl5c2_B A K Ldr1 Ldr2
B1 Tab Ldr2 I=if(V(l1)>0,V(Tab,Ldr2)/RLdr(V(l1),b,a,Rs),0)
Rdark Tab Ldr2 1e6
C1 l1 0 100n
C2 Tab Ldr2 3.5p
D1 nd N1 Dsw
R2 N2 l1 35k
D2 N1 N2 Dsw
D3 A N3 QTLP690C
H1 N1 0 Vs 1
Vs N3 K 0
B2 Ldr1 Tab I=if(V(l1)>0,V(Ldr1,Tab)/RLdr(V(l1),b,a,Rs),0)
Rdark1 Ldr1 Tab 1e6
C3 Ldr1 Tab 3.5p
B3 l1 nd I=V(l1,nd)**1.4/22.5k
.model dsw D(Ron=1 Roff=1G Vfwd=0)
.param b=3.156 a=1.197 Rs=264.7
.func RLdr(i,b,a,Rs) {b/i**a+Rs}
.ends
.subckt Led_Ldr_Min A K Ldr1 Ldr2
D1 A N1 QTLP690C
B1 Ldr2 N2 I=i(Vsens)*v(Ldr1,Ldr2)
Rs Ldr1 N2 1k
Vsens K N1 0
Rdark Ldr1 Ldr2 1e6
Ct Ldr1 Ldr2 5u
.ends
.subckt led_ldr_m A K Ldr1 Ldr2
Dled A N1 QTLP690C
Vsens K N1 0
B1 N2 Ldr2 I=i(Vsens)*v(Ldr2,Ldr1)
Rdark N2 Ldr2 1e6
Ct N2 Ldr2 5u
Rs Ldr1 N2 1k
.ends
.lib standard.dio