* Copyright (c) 1998-2023 Analog Devices, Inc.  All rights reserved.
*
.subckt LT1028 1 2 3 4 5
A1 2 1 0 0 0 0 0 0 OTA g=0 in=.9p ink=250 incm=2.4p incmk=250
M1 3 N012 5 5 N temp=27
M2 4 N012 5 5 P temp=27
C3 3 5 .5p
C4 5 4 .5p
B1 0 N011 I=10u*dnlim(uplim(V(1),V(3)-2.7,.1), V(4)+2.7, .1)+1n*V(1)
B2 N011 0 I=10u*dnlim(uplim(V(2),V(3)-2.69,.1), V(4)+2.69, .1)+1n*V(2)
C6 3 1 2.5p Rpar=1.2G noiseless
C7 1 4 2.5p noiseless Rpar=1.2G
C8 2 4 2.5p Rpar=1.2G noiseless
C9 3 2 2.5p Rpar=1.2G noiseless
A2 0 N011 0 0 0 0 N021 0 OTA g=630u Iout=17.51u en=.85n+freq*36u/(8k*freq+(freq-400k)**2) Vlow=-1e308 Vhigh=1e308 Cout= 1.7p enk=3
C10 N011 0 1f Rpar=100K noiseless
D4 N021 3 X
D5 4 N021 X
D1 N012 5 Y
D6 5 N012 Y
D7 3 4 DP
C11 2 1 12.5p Rpar=20k noiseless
G4 0 N014 N021 0 1µ
D2 2 1 DIN
R3 N014 0 1Meg Noiseless
C1 N014 0 {Cfp1}
R4 N005 N006 {R1a_Avo} Noiseless
R5 N006 0 {R2a_Avo} Noiseless
G1 0 N007 N006 0 {G2_Avo}
C2 N006 N005 {C1a_Avo}
G2 0 N005 N015 0 1
R7 N005 0 1 Noiseless
G3 0 N015 N014 0 1µ
R8 N015 0 1Meg Noiseless
C5 N015 0 {Cfp1}
R9 N009 N010 {R1b_Avo} Noiseless
R10 N010 0 {R2b_Avo} Noiseless
G5 0 N004 N010 0 {G3_Avo}
C12 N010 N009 {C1b_Avo}
R11 N004 0 1 Noiseless
R12 N009 0 1 Noiseless
R14 N002 N001 {R2x_Avo} Noiseless
R15 N001 N004 {R1x_Avo} Noiseless
Rx1 N016 N004 {Rx_Avo} Noiseless
Cx1 N016 0 {Cx_Avo}
G8 0 N002 N016 N001 1Meg
R16 0 N002 1 Noiseless
G6 0 N017 N002 0 1µ
R6 N017 0 1Meg Noiseless
C13 N017 0 {Cfp2}
G7 0 N018 N017 0 1µ
R13 N018 0 1Meg Noiseless
C14 N018 0 {Cfp2}
R17 N007 N008 {R1a_Avo} Noiseless
R18 N008 0 {R2a_Avo} Noiseless
G9 0 N009 N008 0 {G2_Avo}
C15 N008 N007 {C1a_Avo}
R19 N007 0 1 Noiseless
G10 0 N019 N018 0 1µ
R20 N019 0 1Meg Noiseless
C16 N019 0 {Cfp3}
G11 0 N020 N019 0 1µ
R21 N020 0 1Meg Noiseless
C17 N020 0 {Cfp3}
G12 0 N012 N020 0 1µ
R22 N012 0 1Meg Noiseless
C18 N012 0 {Cfp3}
.model X D(Ron=1K Roff=100G Vfwd=-2 epsilon=.1 noiseless)
.model Y D(Ron=500 Roff=1T Vfwd=1.18 epsilon=.1 noiseless)
.model N VDMOS(Vto=-200m Kp=40m)
.model P VDMOS(Vto=200m Kp=40m pchan)
.model DP D(Roff=1T Ron=1k Vfwd=0.5 ilimit=6.602m noiseless)
.model DIN D(Ron=100 Roff=1T Vfwd=1.8 Vrev=1.8 noiseless)
.param fp1=1.5Meg fp2=50Meg fp3=300Meg
.param Cfp1={1 / (2 * pi * fp1 * 1Meg)}
.param Cfp2={1 / (2 * pi * fp2 * 1Meg)}
.param Cfp3={1 / (2 * pi * fp3 * 1Meg)}
.param R1a_Avo=10k
.param fz1_Avo=3.5Meg
.param fp1_Avo=100G
.param C1a_Avo = {1 / (2 * pi * R1a_Avo * fz1_Avo)}
.param R2a_Avo = {R1a_Avo/ ((2 * pi * fp1_Avo * C1a_Avo
+* R1a_Avo) - 1)}
.param actual1_Avo = {R2a_Avo / (R1a_Avo + R2a_Avo)}
.param G2_Avo = {1/actual1_Avo}
.param Rx_Avo=1k
.param R2x_Avo=10k
.param fpx_Avo=99G
.param fzx_Avo=45Meg
.param Cx_Avo={1/(2*pi*Rx_Avo*fpx_Avo)}
.param R1x_Avo={(fzx_Avo*R2x_Avo)/fpx_Avo}
.param R1b_Avo=10k
.param fz2_Avo=5.5Meg
.param fp2_Avo=17Meg
.param C1b_Avo = {1 / (2 * pi * R1b_Avo * fz2_Avo)}
.param R2b_Avo = {R1b_Avo/ ((2 * pi * fp2_Avo * C1b_Avo
+* R1b_Avo) - 1)}
.param actual2_Avo = {R2b_Avo / (R1b_Avo + R2b_Avo)}
.param G3_Avo = {1/actual2_Avo}
.ends LT1028
