* Copyright (c) 1998-2024 Analog Devices, Inc.  All rights reserved.
*
.subckt LT1328 1 2 3 4 5 6 7 8
GPREAMP 0 VPG NVB 1 7.7m
QC1 VPG VPG VC1 0 NPNs
QC2 VC2 VC2 VPG 0 NPNs
RPREG VPG 0 200k
CPREG VPG 0 10p
RFB 1 PREOUT1 50k
RBPRE PREOUT1 RB 1k
REPRE 1 RE 25
QPRE 6 RB RE 0 NPNs 10x
QDPRE 1 1 PREOUT1 0 NPNs
GAC 0 2 PREOUT1 NVB 16.7µ
RFILTER 2 0 10Meg
QC3 2 2 VC3 0 NPNs
QC4 VC4 VC4 2 0 NPNs
RVP VP1 VP 10k
QP 6 VP NEP 0 NPNs
QB 6 PRE 8 0 NPNs
RBQB PRE VP 2k
RTH NEP PREOUT 500
IP PREOUT 4 10µ
IB 8 4 10µ
GCOMP 0 NCOMP 8 PREOUT 2
QC5 NCOMP NCOMP VC5 0 NPNs
QC6 VC6 VC6 NCOMP 0 NPNs
QC7 NCT NCT NCOMP 0 NPNs
QC8 NCT NCT NCO 0 NPNs
QC9 NCOMP NCOMP NCB 0 NPNs
QC10 NCO NCO NCB 0 NPNs
ICT 6 NCT 400µ
ICB NCB 4 2m
QC11 NCO NCO VC11 0 NPNs
QC12 VC12 VC12 NCO 0 NPNs
RF 7 NSW 10k
QF1 NSW NSW NSWE 0 NPNs
RF2 NSWE NSWB 5k
QF2 NSWB N006 4 0 NPNs 50X
ICC 6 0 1.6m
R1 N006 3 10m
C5 NCO 0 650f
G1 0 5 NCO 4 1µ
R2 5 0 1Meg
C6 VC2 4 500p IC=1.5
C7 VC1 4 195p IC=4
R3 VC2 4 10Meg
R4 VC1 4 10Meg
R5 RB 4 1Meg
R6 PREOUT1 0 1
G2 0 PREOUT1 VPG 0 1
I2 4 NVB 1.4
R7 NVB 4 1
C8 VC4 4 500p IC=1.5
R8 VC4 4 10Meg
C9 VC3 4 195p IC=4.5
R9 VC3 4 10Meg
I3 4 VC6 0.7
R10 VC6 4 1
C1 VC6 4 200p
I4 4 VC5 4.3
R11 VC5 4 1
C10 VC5 4 500p
I5 4 VC12 1.2
R12 VC12 4 1
C11 VC12 4 200p
I6 4 VC11 3.6
R13 VC11 4 1
C12 VC11 4 100p
B1 4 VP1 I=V(PREOUT1,4)+0.7 Cpar=100p
R14 VP1 4 1
.MODEL NPNs NPN(BF=200 IS=1E-20 NF=1 NE=1.5 NC=2 NK=.5)
.ends LT1328
