*
*CCM Fri Jan 3 12:04:23 1998
*Paul Daria JIRA# 1158 Fix Singular MAtrix Issue
* 				S1A S2A CA+ S3A S4A CA- OSC VDD VSS
.SUBCKT LTC1043 1    2   3 4   5 6   7 8   9
.IC V(20)=0
CFLT1 3 0 1p IC=0 Rpar=1G
CFLT2 6 0 1p IC=0 Rpar=1G
RIN1 7 9 1.0E9
RIN2 7 20 50
DINP 20 8 DX
DINN 9 20 DX
COSC 20 9 2.4e-11
GBIAS 20 9 POLY(2) 8 9 73 9 0.0 -4.0E-6 -8.0E-6
GINV 9 73 72 20 1.0E-1
RINV1 73 9 1.0E4
CINV1 73 9 2.2E-10
DINV1 73 74 DX
VINV1 74 9 DC -0.86
DINV2 75 73 DX
EINV2 75 9 POLY(1) 9 8 0.8 1.0
GTV 9 72 8 9 1.16E-3
RTV 72 9 1.0E3
RHYST 73 72 1.4E3
GSCS 9 76 73 9 2.5E-3
RSCS 76 9 1.0E3
DSCS 77 76 DX
VSDN2 77 9 DC -4.2
EST1 24 9 76 9 1.0
RST1 24 25 113
RST2 25 26 85
DST1 24 26 DX
CST1 25 9 1.2E-9
EST2 44 9 POLY(1) 9 76 -5 1
RST3 44 45 113
RST4 45 46 85
DST2 44 46 DX
CST2 45 9 1.2E-9
XS1A 1 3 25 8 9 X1LTC1043
XS2A 2 3 45 8 9 X1LTC1043
XS3A 4 6 25 8 9 X1LTC1043
XS4A 5 6 45 8 9 X1LTC1043
RPC 8 9 25000
.MODEL DX D IS=8e-16 RS=0 XTI=0
.ENDS LTC1043

*
.SUBCKT X1LTC1043 1 2 25 14 15 ;NESTED SUBCIRCUIT--DO NOT CALL
GSW 1 31 POLY(2) 25 15 1 31 0 0 6e-13 0 0 0 0 0 0 0 0 0 0 0 0 0
+ 0 0 0 0 0 0 0 0 0 0 0 0 0 0 0 0 0 0 0 0 0
+ 0 0 0 0 0 0 0 0 0 2.56E-6
RTC 33 15 995.41 TC=-0.002298
GTC 15 33 31 2 0.001
GPK1 15 50 POLY(2) 1 15 14 15 0 1.0E-3 -0.0006
RPK1 50 15 1.0E3
DPK1 50 51 DX
RPK2 51 15 1.0E4
GPK2 15 52 POLY(2) 1 15 51 15 0 1.0E-3 -1.4E-3
RPK3 52 15 1.0E3
GSV1 15 53 TABLE {V(14,15)}=
+ (3.0, 6.8E-3) (5.0, 4.15E-3) (7.0, 2.9E-3) (9.0, 2.25E-3) (10.0, 1.95E-3)
+ (12.0, 1.58E-3) (15.0, 1.23E-3) (18.0, 1.0E-3)
RSV1 53 15 1.0E3
GSV2 15 54 POLY(2) 53 15 52 15 0 0 0 0 1.0E-3
RSV2 54 15 1.0E3
GON 31 2 POLY(2) 33 15 54 15 0 0.009972 0 0 0 0 0 0 -3.437e-5
RON1 1 31 1.0E12
RON2 31 2 1.0E9
CDS 1 2 5e-13
CDG 2 15 1e-12
CSG 1 15 1e-12
.MODEL DX D IS=8e-16 RS=0 XTI=0
.ENDS X1LTC1043
*
