* Copyright (c) 1998-2024 Analog Devices, Inc.  All rights reserved.
*
.subckt LTC2068 1 2 3 4 5 6
B1 0 N004 I=10u*dnlim(uplim(V(1),V(3)+0.2, 0.1), V(4)-0.2, .1)+1n*V(1)
B2 N004 0 I=10u*dnlim(uplim(V(2),V(3) +0.21,0.1), V(4)-0.21, 0.1)+1n*V(2)
C10 N004 0 1f Rpar=100k Noiseless
M1 5 NG 4 4 NI temp=27 M=10
C2 3 5 10p Rpar=1G noiseless
D5 NG 4 DLIMNP
M2 5 PG 3 3 PI temp=27 M=10
D9 XC 0 DLIM
C13 3 4 10p
C1 X1 0 900p Rpar=1k Noiseless
C17 4 6 500f
S4 PG 3 0 N006 SHUT1
S2 4 NG 0 N006 SHUT1
S7 3 4 SS 0 SPOW
L1 X2 0 3.36m Cpar=61.9p Rser=1.48k Rpar=3.08k noiseless
A2 6 4 0 0 0 0 N006 0 SCHMITT trise=10u vt=0.8 vh=10m
D2 3 6 DSHUT
D6 2 3 DESD
D7 4 2 DESD
D10 1 3 DESD
D11 4 1 DESD
S1 XC 0 4 3 SNLG
G1 0 N009 5 MID 10m
R3 N009 0 1k noiseless
C8 XC N009 173p
C12 2 1 3.3p Rser=100k Noiseless
C3 NG 4 400f Rser=25Meg Noiseless
D12 4 6 DESD2
C6 2 4 1.75p Rser=100k Noiseless
D1 6 3 DESD2
A4 N004 0 0 0 0 0 X1 0 OTA G=1m Linear en=85n*(1+freq/4k)**1.5/(((1+uplim(freq,50k,5k)/ 85k)**6)*(1+freq/110k)**2) Vhigh=1e308 Vlow=-1e308
C4 1 4 1.75p Rser=100k Noiseless
C5 3 1 1.75p Rser=100k Noiseless
C7 3 2 1.75p Rser=100k Noiseless
G4 3 PG 4 PG 1m vto=0 dir=1
A5 N006 0 0 0 0 0 SS 0 BUF Rout=10Meg Cout=20p
A7 0 X2 0 0 0 0 XC 0 OTA G=100u Iout=5u Cout=1p Vhigh=1e308 Vlow=-1e308
S3 0 XC 0 N006 SHUT2
D3 3 4 DLK
A8 0 X1 0 0 0 0 X2 0 OTA G=1m iout=31u Vlow=-1e308 vhigh=1e308
B3 0 XC I=uplim(dnlim(1-dnlim(10*(V(XC)+200m),0,100m), 0,100m)*dnlim(20u*(V(X1)-100m),0,.1u),10u,1u)
B4 XC 0 I=uplim(dnlim(1-dnlim(-10*(V(XC)-200m),0,100m), 0,100m)*dnlim(20u*(-100m-V(X1)),0,.1u),15u,1u)
A3 N005 0 3 3 3 3 PG 3 OTA G=10n linear ref=-900m vlow=-3.5 vhigh=0
C9 N005 0 400f Rser=2Meg Rpar=1Meg Noiseless
C11 5 4 10p Rpar=1G Noiseless
C14 3 PG 50f Rser=60Meg Noiseless
L2 N009 0 50µ Rser=100 Noiseless
G5 0 MID 3 0 0.5m
G6 0 MID 4 0 0.5m
R4 MID 0 1k Noiseless
D4 3 PG DLIMNP
G8 3 PG NG 4 1m vto=550m dir=1
A1 2 1 0 0 0 0 0 0 OTA G=0 in=35f*(1+freq/45k)**2.2/(1+freq/1Meg)**3
A6 0 XC 4 4 4 4 NG 4 OTA G=80n Linear ref=55.12m Vlow=0 vhigh=2.5
G2 NG 4 NG 3 1m Vto=0 dir=1
G3 0 N005 4 NG 1µ
.model DSHUT D(Ron=85k Roff=1G Vfwd=.1 epsilon=50m ilimit=50n  noiseless)
.model SPOW SW(level=2 Ron=1k Roff=10G vt=.5 vh=-200m ilimit=5.883u noiseless)
.model DLK D(Ron=1Meg Roff=1Meg ilimit=35n noiseless)
.model SHUT1 SW(Ron=100k Roff=100G vt=-.8 vh=-100m noiseless)
.model SHUT2 SW(Ron=1k Roff=10G vt=-.8 vh=-100m noiseless)
.model SNLG SW(level=2 Ron=19Meg Roff=455Meg vt=-1 vh=-1.5 noiseless)
.model SOD SW(level=2 Ron= 600k Roff=20Meg vt=2 vh=-1 noiseless)
.model PI VDMOS(kp=950u vto=-500m mtriode=1.5  ksubthres=50m pchan noiseless)
.model NI VDMOS(kp=1.8m vto=500m mtriode=1.5  ksubthres=50m noiseless)
.model DLIM D(Ron=1k Roff=1g Vfwd=4.2 Vrev=4.2 epsilon=100m revepsilon=100m noiseless)
.model DESD D(Ron=100 Roff=10T Vfwd=1.4 epsilon=200m noiseless)
.model DESD2 D(Ron=100 Roff=10T Vfwd=600m epsilon=200m noiseless)
.param vs=5
.param RL=499k
.param CL=1f
.model DLIMNP D(Ron=800Meg Roff=100Meg vfwd=500m epsilon=50m noiseless)
.ends LTC2068
