* Rev 2 - May 2013
.SUBCKT MC33063A SwC SwE Osc Com Inv Vcc Ipk DrC ; Rev.2
.param tdt=10n
C1 Vcc COM 20p
I1 Vcc ref TBL(0 0 2.5 2m8 3.5 3m1 40 3m4)
D1 COM ref 1V25
E1 C 0 ref COM 1
A1 ref Inv 0 0 0 0 B 0 SCHMITT Vt=0 Vh=1m tripdt={tdt}
A2 COM Osc 0 0 0 2 A 0 SCHMITT Vt=-0.9 Vh=0.35 trise=50n tfall=0u9 tripdt={tdt}
A3 2 0 0 0 0 0 R 0 BUF ref=0.1 tau=20n tripdt={tdt}
A4 A 0 B 0 C 0 S 0 AND ref=0.9 td=0u2 tripdt={tdt}
A5 S R 0 0 0 0 Q 0 SRFLOP tau=0u1 tripdt={tdt}
I2 S R pulse(5 0 0 1n) ; force f/f reset at startup
G1 COM 3 ref COM 0m5
R1 COM 3 10k
C2 Osc 3 12p
S1 COM 3 R 0 bump
S2 COM Osc R 0 sink
I3 Vcc Osc TBL(2 0 3 35u)
R2 1 Vcc 10k
C3 1 Ipk 10p
S3 Osc Vcc 1 Ipk comp
C4 DrC COM 10p
S4 DrB Vcc Q 0 drive
R3 DrE SwE 100
Q1 SwC DrE SwE 0 sw
D2 COM Osc Dsub
R4 COM 1 1e7
Q2 DrC DrB DrE 0 sw m=85m
.model Dsub d Ron=1 Vfwd=0.6 Epsilon=0.2
.model 1V25 d Ron=1 Roff=466 Vrev=1.25 revEpsilon=10m
.model comp sw level 2 Vt=290m Vh=-100m Ron=300 Roff=1e7 Ilimit=15m
.model sink sw level 2 Vt=0.1 Vh=-1m Ron=1k Roff=1e7 Ilimit=255u Vser=0.1
.model bump sw level 2 Vt=0.1 Vh=-1m Ron=1e7 Roff=1k
.model drive sw level 2 Vt=300m Vh=-10m Ron=200 Roff=1e8 Ilimit=0m7
.model sw npn Is=50f Bf=130 Br=10 Ikf=1.5 Rb=1 Re=30m Rc=0.4 Cje=100p Cjc=20p
.ENDS MC33063A

.subckt SWeq 1 2 x=1 y=1 Rmin=1u Rmax=1T
.func EQ(a,b) if((a>b)|(b>a),0,1)
R 1 2 R=if(EQ(x,y),Rmin,Rmax)
.ends SWeq

.subckt Rb P M params: Rmax=10 Tau=1u K=10
V1 P s 0
B1 s M I=V(s,M)/(Rmax*(1-tanh(k*v(q))))
B2 0 q I=i(v1) Rpar=1
C1 q 0 {Tau}
.ends Rb

.subckt MultCurrent A B M=5
V A B 0
B A 0 I=(M-1)*i(v) 
.ends MultCurrent

.subckt ZXCT1022 GND V+ Vout Vs
R1 Vs R1_N 1Meg
R2 V+ GND 570k
XARB1 R1_N V+ Vout arbsourceARB1
.subckt arbsourceARB1 N1 N2 OUT
B1 OUT 0 V=uramp(((V(n2)-V(n1))*100)+30m)
.ends
C1 R1_N V+ 3p
.ends ZXCT1022


.subckt Lowdrop 1 2 3 Vout=5 Rout=0.1 Imax=0.5 Dropmin=0.2
* in gnd out
S1 3 1 2 3 reg
r 2 3 1Gig
.model reg sw level=2 Vt={-Vout} Vh=-4m Ron={Rout} Roff=1G Ilimit={Imax} Vser={Dropmin}
.ends Lowdrop

.subckt LowdropT 1 2 3 Vout=5 Rout=0.1 Imax=0.5 Dropmin=0.2 tau=1u
* in gnd out
S1 3 1 2 30 reg
R 3 30 1k
rx 2 3 1Gig
C 30 2 {tau/1k}
.model reg sw level=2 Vt={-Vout} Vh=-4m Ron={Rout} Roff=1G Ilimit={Imax} Vser={Dropmin}
.ends LowdropT


.subckt Rwire n1 n2 length=1 D=0 S=0 N=1 ro=0.0175u
* Cu-0.0175u, Al=0.028u
R n1 n2 {ro*length*N/(0.7854*d*d+S)}
.ends Rwire
.Subckt Lwire N1 N2 length=1 D=1m
L1 N1 N2 {200n*length*(log(length/D)+0.389*D/length+0.636)}
.ends Lwire
.subckt Cparasitic 1 C=50F
C 1 0 {c}
.ends
.subckt Lparasitic n1 n2 L=4n Rs=1m Rp=1k
L n1 n2 {L} rser={Rs} Rpar={Rp}
.ends

.subckt resUS 1 2 R=1K Cp=0.1p Ls=1n Rmin=1
C 1 2 {Cp} Lser={Ls} Rpar={R} Rser={Rmin}
.ends 

* node assignments
* c1
* | b1
* | | e1
* | | | e2
* | | | | b2
* | | | | | c2
* | | | | | |
.subckt mat03 1 2 3 5 6 7
q1 1 2 3 pmat
q2 7 6 5 pmat
d1 2 3 dmat1
d2 6 5 dmat1
d3 3 4 dmat1
d4 5 4 dmat1
d5 1 4 dmat2
d6 7 4 dmat2
.model dmat1 d(is=7.2e-16 rs=20)
.model dmat2 d(is=1e-14 vj=0.6 cjo=68p)
.model pmat pnp(bf=160 is=1.4e-13 vaf=60 br=5 var=7 rb=16 rc=12 re=0.35 cje=57p vje=0.7 mje=0.4 tf=1.08n tr=3e-8 cjc=40p vjc=0.55 mjc=0.5 ikf=160m)
.ends

.Subckt L200CV IN LIM GND REF OUT
rt in 7 1Meg
bt in 7 i=0.001*uramp(1-uramp(1-v(in,7)/0.3))
I1 IN LIM DC 1u
B4 N2 GND i=uramp(v(out,lim)-0.45)
R4 13 outv 10K
B3 N1 N2 i=uramp(v(n1,n2)-0.1)
V1 N1 GND DC 0.7
B2 N2 GND i=uramp(v(outv,out)-0.05)
R3 7 N2 10K
C1 N2 refv 100p
Q3 GND N2 7 p
R2 outv OUT 16m
Q2 IN 13 outv n area=10
Q1 IN 7 13 n
c 7 gnd 3p
bg1 n2 gnd i=uramp(v(refv,opor))
R1 refv REF 10K
B1 opor GND v=2.77*u(v(in,gnd)-4.5)
.model n npn cje=2p tf=1n
.model p pnp tf=30n bf=20
.ends L200CV

* Photoresistor
.subckt NORP12 Light R+ R-
B1 R+ R- I=V(R+,R-)*V(l1)**0.76/113k
E1 N001 0 Light 0 1
Rdark R+ R- 50MEG
C1 l1 0 Q=51.95u*ln(1+ABS(x)*7.8m)
C2 R+ R- 3.5p
D2 N001 l1 Dsw
R1 Light 0 1K
.model dsw D(Ron=17k Roff=100k Vfwd=0)
.ends norp12

.subckt L-93WSRSGC 1 2 3
Dr 1 2 red
Dg 3 2 green
.model red d is=4.844e-22 rs=2.964 N=1.5339 Cjo=45p Eg=2 Vj=2 m=0.2
.model green d is=3.2938e-21 rs=8.556 N=1.8107 Cjo=15p Eg=2.4 Vj=2.5 m=0.2
.ends

*
.subckt SWoff 1 2
roff 1 2 100Gig
.ends

.subckt SWon 1 2
Vkz 1 2 0
.ends

.subckt vilka2 1 2
r1 1 0 1Gig
r2 2 0 1Gig
.ends vilka2

.subckt vilka3 1 2 3
r1 1 0 1Gig
r2 2 0 1Gig
r3 3 0 1Gig
.ends vilka3

.subckt vilka5 1 2 3 4 5
r1 1 0 1Gig
r2 2 0 1Gig
r3 3 0 1Gig
r4 4 0 1Gig
r5 5 0 1gig
.ends vilka5

.subckt vilka6 1 2 3 4 5 6
r1 1 0 1Gig
r2 2 0 1Gig
r3 3 0 1Gig
r4 4 0 1Gig
r5 5 0 1gig
r6 6 0 1gig
.ends vilka6

.subckt rozetka2 1 2
r1 1 0 1Gig
r2 2 0 1Gig
.ends rozetka2

.subckt rozetka3 1 2 3
r1 1 0 1Gig
r2 2 0 1Gig
r3 3 0 1Gig
.ends rozetka3

.subckt rozetka5 1 2 3 4 5
r1 1 0 1Gig
r2 2 0 1Gig
r3 3 0 1Gig
r4 4 0 1Gig
r5 5 0 1gig
.ends rozetka5

.subckt rozetka6 1 2 3 4 5 6
r1 1 0 1Gig
r2 2 0 1Gig
r3 3 0 1Gig
r4 4 0 1Gig
r5 5 0 1Gig
r6 6 0 1gig
.ends rozetka6

.subckt GND1 1
vkz 1 0 0
.ends GND1

.subckt g_loop L I1 I2 B COM H
G1 COM N001 L I1 {1µ/(A*N)}
C1 N001 COM 1µ
E1 B COM N001 COM 1
V1 I1 I2 0
H1 H COM V1 {N/Lm}
.ends g_loop



.SUBCKT Shock_Sensor 1 3 p Cpar=480pf G=0.153p
C0 1 2 {Cpar} Rpar=500Meg
E 2 3 p 0 {G/Cpar}
.ENDS

.SUBCKT XTAL_param 1 2 FREQ=1Meg Rser=750 Cpar=13pf Q=1000
+ Rpar=1e24 IC_L_current=0.5m IC__C_Volt=0
LX 1 3 {((Q*RSer)/(2*PI*FREQ))} IC={IC_L_current} Rser={RSer} Rpar=1e24
CX 3 2 {(1/(Q*2*PI*FREQ*RSer))} ic={IC__C_Volt}
C0 1 2 {Cpar} Rpar={Rpar}
.ENDS

* K=Cpar/Cx -capacitive ratio
.SUBCKT XTAL_param2 1 2 FREQ=32768 Rser=30k Cpar=1pf K=400
+ Rpar=1e24 IC_L_current=1u
LX 1 3 {K/((2*PI*FREQ)**2*Cpar)} IC={IC_L_current} Rser={RSer} Rpar=1e24
CX 3 2 {Cpar/K}
C0 1 2 {Cpar} Rpar={Rpar}
.ENDS

.Subckt CRYSTAL_9_OVERTONE 1 2 Freq=10Meg C0=3p K=300
+ Rm1=20 rm3=50 rm5=100 rm7=150 rm9=200 ic1=100u ic3=100u ic5=100u ic7=100u ic9=100u
.param Cm1=C0/K
.param W=2*Pi*Freq
.param Lm=1/(W**2*Cm1)
Lm1 1 3 {Lm} ic={ic1} Rser={Rm1} Rpar=1e24
Lm3 1 4 {Lm} ic={ic3} Rser={Rm3} Rpar=1e24
Lm5 1 5 {Lm} ic={ic5} Rser={Rm5} Rpar=1e24
Lm7 1 6 {Lm} ic={ic7} Rser={Rm7} Rpar=1e24
Lm9 1 7 {Lm} ic={ic9} Rser={Rm9} Rpar=1e24
Cm1 3 2 {Cm1}
Cm3 4 2 {Cm1/9}
Cm5 5 2 {Cm1/25}
Cm7 6 2 {Cm1/49}
Cm9 7 2 {Cm1/81}
C0 1 2 {C0} Rpar=1e24
.ends


.subckt BridgeRectifier Vin1 Vin2 V- V+ Vf=0.6 r=1m Rut=1Gig
d1 vin1 V+ did
d2 vin2 V+ did
d3 v- vin1 did
d4 v- Vin2 did
.model did d Ron={r} Roff={Rut} Vfwd={vf}
.ends BridgeRectifier

.Subckt ntc_resistor n1 n2
B1 n1 n2 i=v(n1,n2)/{R0}*exp({b}*(1/(273+{T0})-1/(273+TEMP)))
.ends

.Subckt ntc_resistorT n1 n2 T
B1 n1 n2 i=v(n1,n2)/{R0}*exp({b}*(1/(273+{T0})-1/(273+V(T))))
.ends

*
.SUBCKT PDTA143XT 1 2 3
*
R1 1 22 4.7k
Cres1 1 3 4.3E-13
R21 22 11 5k
R22 11 2 5k
Cres2 11 3 1.3E-13
*
Q1 3 22 2 PDTA143XT
*
.MODEL PDTA143XT PNP
+ IS=2.014E-14 NF=0.9974
+ ISE=6.578f NE=1.45 BF=339.3 IKF=0.079 VAF=39.15 NR=0.9952 ISC=1.948p
+ NC=1.55 BR=12.01 IKR=0.015 VAR=16.5 RB=10 IRB=5E-06 RBM=5E-06 RE=0.673 RC=0.718
+ CJE=1.104E-11 VJE=0.9 MJE=0.2748 TF=1E-32 XTF=0 VTF=1E+03 ITF=0 PTF=0 CJC=6.4p
+ VJC=0.499 MJC=0.4435 XTB=0 XTI=3 EG=1.11 FC=0.5
.ENDS

.SUBCKT PDTA143ET 1 2 3
*
R1 1 22 4.7E+03
Cres1 1 3 4.3E-13
R21 22 11 2.35E+03
R22 11 2 2.35E+03
Cres2 11 3 1.4E-13
*
Q1 3 22 2 PDTA143ET
*
.MODEL PDTA143ET PNP
+ IS=2.014E-14
+ NF=0.9974
+ ISE=6.578f
+ NE=1.45
+ BF=339.3
+ IKF=0.079
+ VAF=39.15
+ NR=0.9952
+ ISC=1.948p
+ NC=1.55
+ BR=12.01
+ IKR=0.015
+ VAR=16.5
+ RB=10
+ IRB=5E-06
+ RBM=5E-06
+ RE=0.673
+ RC=0.718
+ CJE=1.104E-11
+ VJE=0.9
+ MJE=0.2748
+ TF=1E-32
+ XTF=0
+ VTF=1E+03
+ ITF=0
+ PTF=0
+ CJC=6.4p
+ VJC=0.499
+ MJC=0.4435
+ XCJC=1
+ TR=1E-32
+ CJS=0
+ VJS=0.75
+ MJS=0.333
+ XTB=0
+ XTI=3
+ EG=1.11
+ FC=0.5
.ENDS
*
.SUBCKT PDTA144ET 1 2 3
*
R1 1 22 4.7E+04
Cres1 1 3 4.8E-13
R21 22 11 2.35E+04
R22 11 2 2.35E+04
Cres2 11 3 1.5E-13
*
Q1 3 22 2 PDTA144ET
*
.MODEL PDTA144ET PNP
+ IS=2.014E-14
+ NF=0.9974
+ ISE=6.578f
+ NE=1.45
+ BF=339.3
+ IKF=0.079
+ VAF=39.15
+ NR=0.9952
+ ISC=1.948p
+ NC=1.55
+ BR=12.01
+ IKR=0.015
+ VAR=16.5
+ RB=10
+ IRB=5E-06
+ RBM=5E-06
+ RE=0.673
+ RC=0.718
+ CJE=1.104E-11
+ VJE=0.9
+ MJE=0.2748
+ TF=1E-32
+ XTF=0
+ VTF=1E+03
+ ITF=0
+ PTF=0
+ CJC=6.4p
+ VJC=0.499
+ MJC=0.4435
+ XCJC=1
+ TR=1E-32
+ CJS=0
+ VJS=0.75
+ MJS=0.333
+ XTB=0
+ XTI=3
+ EG=1.11
+ FC=0.5
.ENDS


*
.SUBCKT PDTC143ET 1 2 3
*
R1 1 22 4.7E+03
Cres1 1 3 4.3E-13
R21 22 11 2.35E+03
R22 11 2 2.35E+03
Cres2 11 3 1.4E-13
*
Q1 3 22 2 PDTC143ET
*
.MODEL PDTC143ET NPN IS=1.822E-14 NF=0.9932 ISE=2.894E-16 NE=1.4 BF=354.4 IKF=0.246 VAF=182 NR=0.9931 ISC=9.982p NC=1.763 BR=14.99 IKR=0.05 VAR=17.9 RB=10 IRB=5E-06 RBM=5 RE=0.649 RC=1.101 XTB=0 EG=1.11 XTI=3 CJE=1.32E-11 VJE=0.8401 MJE=0.3622 XTF=0 VTF=1E+03 ITF=0 PTF=0 CJC=3.821p VJC=0.5986 MJC=0.3745 XCJC=0.6193 FC=0.5
.ENDS
*
.SUBCKT PDTC144ET 1 2 3
*
R1 1 22 4.7E+04
Cres1 1 3 4.8E-13
R21 22 11 2.35E+04
R22 11 2 2.35E+04
Cres2 11 3 1.5E-13
*
Q1 3 22 2 PDTC144ET
*
.MODEL PDTC144ET NPN
+ IS=1.822E-14
+ NF=0.9932
+ ISE=2.894E-16
+ NE=1.4
+ BF=354.4
+ IKF=0.246
+ VAF=182
+ NR=0.9931
+ ISC=9.982p
+ NC=1.763
+ BR=14.99
+ IKR=0.05
+ VAR=17.9
+ RB=10
+ IRB=5E-06
+ RBM=5
+ RE=0.649
+ RC=1.101
+ XTB=0
+ EG=1.11
+ XTI=3
+ CJE=1.32E-11
+ VJE=0.8401
+ MJE=0.3622
+ TF=1E-32
+ XTF=0
+ VTF=1E+03
+ ITF=0
+ PTF=0
+ CJC=3.821p
+ VJC=0.5986
+ MJC=0.3745
+ XCJC=0.6193
+ TR=1E-32
+ CJS=0
+ VJS=0.75
+ MJS=0.333
+ FC=0.5
.ENDS

.subckt DDTC144ECA 1 2 3
Rb 1 11 47k
rbe 11 0 47k
q 3 11 2 DI_DDTC144
.MODEL DI_DDTC144 NPN (IS=9.98f NF=1.00 BF=766 VAF=127
+ IKF=54.7m ISE=2.14p NE=2.00 BR=4.00 NR=1.00
+ VAR=24.0 IKR=0.135 RE=0.815 RB=3.26 RC=0.326
+ XTB=1.5 CJE=20.7p VJE=1.10 MJE=0.500 CJC=11.4p VJC=0.300
+ MJC=0.300 TF=567p TR=119n EG=1.12 )
.ends

.subckt DDA143TU E1 B1 C2 C1 B2 E2
R11 B1 1 4.7k
R21 B2 2 4.7k
q1 C1 1 E1 DI_DDA143TU
q2 C2 2 E2 DI_DDA143TU
.MODEL DI_DDA143TU PNP (IS=9.98f NF=1.00 BF=766 VAF=127
+ IKF=54.7m ISE=2.14p NE=2 BR=4 NR=1
+ VAR=24.0 IKR=0.135 RE=0.815 RB=3.26 RC=0.326
+ XTB=1.5 CJE=20.7p VJE=1.1 MJE=0.5 CJC=11.4p VJC=0.3
+ MJC=0.3 TF=567p TR=119n EG=1.12 )
.ends DDA143TU
.subckt DDA144EU E1 B1 C2 C1 B2 E2
R11 B1 1 47k
R12 1 E1 47k
R21 B2 2 47k
R22 2 E2 47k
q1 C1 1 E1 DI_DDA144EU
q2 C2 2 E2 DI_DDA144EU
.MODEL DI_DDA144EU PNP (IS=9.98f NF=1.00 BF=766 VAF=127
+ IKF=54.7m ISE=2.14p NE=2 BR=4 NR=1
+ VAR=24.0 IKR=0.135 RE=0.815 RB=3.26 RC=0.326
+ XTB=1.5 CJE=20.7p VJE=1.1 MJE=0.5 CJC=11.4p VJC=0.3
+ MJC=0.3 TF=567p TR=119n EG=1.12 )
.ends DDA144EU
.subckt DDA123JU E1 B1 C2 C1 B2 E2
R11 B1 1 2.2k
R12 1 E1 47k
R21 B2 2 2.2k
R22 2 E2 47k
q1 C1 1 E1 DI_DDA143EU
q2 C2 2 E2 DI_DDA143EU
.MODEL DI_DDA143EU PNP (IS=9.98f NF=1.00 BF=766 VAF=127
+ IKF=54.7m ISE=2.14p NE=2 BR=4 NR=1
+ VAR=24.0 IKR=0.135 RE=0.815 RB=3.26 RC=0.326
+ XTB=1.5 CJE=20.7p VJE=1.1 MJE=0.5 CJC=11.4p VJC=0.3
+ MJC=0.3 TF=567p TR=119n EG=1.12 )
.ends DDA123JU

*Motorola NPN Low Noise, High-Frequency Transistor
********************
* Version 1.0.1a
.SUBCKT MRF9411 100 200 300
LCL1 100 101 1.8E-10
LCL2 101 102 1.8E-10
LCL3 102 199 1.8E-10
LBL1 200 201 1.3E-10
LBL2 201 202 1.3E-10
LBL3 202 203 1.3E-10
LBB 203 299 6.5E-10
LEL11 350 351 1.3E-10
LEL12 351 352 1.3E-10
LEL13 352 353 1.3E-10
LEB1 353 399 6.5E-10
LEL21 340 341 1.3E-10
LEL22 341 342 1.3E-10
LEL23 342 343 1.3E-10
LEB2 343 399 6.5E-10
CBE11 201 351 1E-14
CBE12 202 352 1E-14
CBE21 203 343 3E-14
CCB 203 199 1E-14
CCE21 101 341 1.2E-13
CCE22 102 342 1.2E-13
CCE11 199 353 1.8E-13
RX1 350 300 0.001
RX2 340 300 0.001
X1 199 299 399 RF9411
.ENDS MRF9411
*
.SUBCKT RF9411 1 2 3
CBPAD 2 1 4E-14
CEPAD 1 3 8E-14
Q1 1 2 3 DMRF9411
*
.MODEL DMRF9411 NPN
+ IS=4.558E-16
+ BF=136
+ NF=0.9979
+ VAF=21
+ IKF=0.7
+ ISE=3.087E-14
+ NE=2
+ BR=42
+ NR=0.993
+ VAR=2.9
+ IKR=0.016
+ ISC=3.411E-17
+ NC=1.087
+ RB=7
+ IRB=8E-05
+ RBM=8
+ RE=0.45
+ RC=8
+ XTB=0
+ EG=1.11
+ XTI=3
+ CJE=8.6E-13
+ VJE=0.94
+ MJE=0.42
+ CJC=4.3E-13
+ VJC=0.35
+ MJC=0.21
+ XCJC=0.44
+ TF=1.3E-11
+ XTF=400
+ VTF=6
+ ITF=1.5
+ PTF=47
+ TR=1E-09
+ FC=0.98
.ENDS RF9411



*ATF-34143 packaged FET model
.SUBCKT ATF34143 16 14 15
RR2 2 1 0.1
*RR9 4 3 0.1
RR9 4 3 1.1 ;my
RR5 1 5 0.1
LL2 5 SOURCE 0.1nH
LL7 SOURCE 7 0.1nH
LL6 SOURCE 8 0.1nH
RR6 8 2 0.1
RR7 7 2 0.1
RR8 DRAIN 9 0.1
LL5 9 11 0.1nH
LL8 2 15 0.05nH
LL10 15 1 0.1nH
LL1 14 4 0.8nH
LL9 11 16 0.6nH
CC3 11 2 0.15p
CC4 1 4 0.15p
LL4 3 GATE 0.1nH
dpar gate source mydi ;my
.model mydi d is=2p n=1.32137 rs=1.5 ;my
Rgs GATE SOURCE 8.8Meg ; my
Z1 DRAIN GATE SOURCE BATF34143
.MODEL BATF34143 NMF (Vto=-0.95, Beta=0.24, B=0.8, Alpha=4,
+ Lambda=0.09, Rd=0.25, Rs=0.125,Cgs=0.8p, Cgd=0.16p, Pb=0.7 is=1e-18 )
.ENDS

.Subckt BC847BS 1 2 3 4 5 6
Q1 6 2 1 qbc847b
Q2 3 5 4 qbc847b
.model qbc847b npn is=18.22f bf=324 nf=0.9932 vaf=82 ikf=109m ise=2.894e-16 ne=1.4 br=8.29 nr=0.993 var=18 ikr=90m
+ isc=9.98p nc=1.763 rb=10 irb=5u rbm=5 re=0.649 rc=0.7014 cje=1.244e-11 vje=0.7579 mje=0.3656 tf=4.908e-10 xtf=9.51
+ vtf=2.927 itf=313m ptf=0 cjc=3.35p vjc=0.5463 mjc=0.391 xcjc=0.6193 tr=90n xtb=1 eg=1.11 xti=3 fc=0.979
.ends

.Subckt BC857BS 1 3 3 4 5 6
Q1 6 2 1 qbc857b
Q2 3 5 4 qbc857b
.model qbc857b pnp is=20.14f bf=315 nf=0.9974 vaf=39 ikf=79m ise=6.578f ne=1.45 br=8.68 nr=0.9952 var=9.5 ikr=90m isc=16.33f nc=1.15 rb=10 irb=5u rbm =1 re=0.663 rc=0.718 cje=11.35p vje=0.707 mje=0.3808 tf=654.6p xtf=5.387 vtf=6.245 itf=0.2108 ptf=0 cjc=6.4p vjc=0.495 mjc=0.44 xcjc=0.629 tr=55n xtb=1 eg=1.11 xti=3 fc=0.9059
.ends

*
.SUBCKT BC847BV 1 2 3 4 5 6
*
*
* BC847BV
* 2 NPN Transistors in SOT666
* QTR1=QTR2 NPN
* Ic= 100mA
* Vceo= 45V
*
Q1 6 2 1 QTR1
Q2 3 5 4 QTR1
*
* TOPVIEW:
*
* C-------(TR1)
* | B----(TR2)
* | | E-(TR2)
* | | |
* __6__5__4__
* | |
* | | SOT666
* |o |
* |___________|
* 1 2 3
* | | |
* | | C-(TR2)
* | B----(TR1)
* E-------(TR1)
*
*
.MODEL QTR1 NPN
+ IS=1.822E-14
+ NF=0.9932
+ ISE=2.894E-16
+ NE=1.4
+ BF=324.4
+ IKF=0.109
+ VAF=82
+ NR=0.9931
+ ISC=9.982p
+ NC=1.763
+ BR=8.29
+ IKR=0.09
+ VAR=17.9
+ RB=10
+ IRB=5E-06
+ RBM=5
+ RE=0.649
+ RC=0.7014
+ XTB=0
+ EG=1.11
+ XTI=3
+ CJE=1.244E-11
+ VJE=0.7579
+ MJE=0.3656
+ TF=4.908E-10
+ XTF=9.51
+ VTF=2.927
+ ITF=0.3131
+ PTF=0
+ CJC=3.347p
+ VJC=0.5463
+ MJC=0.391
+ XCJC=0.6193
+ TR=9E-08
+ CJS=0
+ VJS=0.75
+ MJS=0.333
+ FC=0.979
.ENDS
*

.Subckt BC847BPN 1 2 3 4 5 6
Q1 6 2 1 nt
Q2 3 5 4 pt
.model nt npn is=1.822e-14 bf=324.4 nf=0.9932 vaf=82 ikf=0.109 ise=2.894e-16
+ ne=1.4 br=8.29 nr=0.9931 var=17.9 ikr=0.09
+ isc=9.982p nc=1.763 rb=10 irb=5u rbm=5
+ re=0.649 rc=0.7014 cje=12.44p vje=0.7579 mje=0.3656
+ tf=4.908e-10 xtf=9.51 vtf=2.927 itf=0.3131 ptf=0
+ cjc=3.347p vjc=0.5463 mjc=0.391 xcjc=0.6193 tr=90n xtb=0 eg=1.11
+ xti=3 fc=0.979
.model pt pnp is=2.014e-14 bf=315.3 nf=0.9974 vaf=39.15 ikf=0.079 ise=6.578f
+ ne=1.45 br=8.68 nr=0.9952 var=9.5 ikr=0.09
+ isc=1.633e-14 nc=1.15 rb=10 irb=5u rbm=5u
+ re=0.663 rc=0.718 cje=1.135e-11 vje=0.7071 mje=0.3808
+ tf=6.546e-10 xtf=5.387 vtf=6.245 itf=0.2108 ptf=0
+ cjc=6.395p vjc=0.4951 mjc=0.44 xcjc=0.6288 tr=55n xtb=0 eg=1.11
+ xti=3 fc=0.9059
.ends BC847BPN

*
.SUBCKT BC847BVN 1 2 3 4 5 6
*
* NXP Semiconductors
*
*
* BC847BVN
* Complementary NPN and PNP
* Transistors in SOT666
* QTR1 NPN
* QTR2 PNP
*
* hFE= min200 max450
* Ic= 100mA
* Vceo= 45V
*
* TOPVIEW:
*
* C-------(TR1)
* | B----(TR2)
* | | E-(TR2)
* | | |
* __6__5__4__
* | |
* | | SOT666
* |o |
* |___________|
* 1 2 3
* | | |
* | | C-(TR2)
* | B----(TR1)
* E-------(TR1)
*
Q1 6 2 1 QTR1
Q2 3 5 4 QTR2
*
.MODEL QTR1 NPN
+ IS=1.822E-14
+ NF=0.9932
+ ISE=2.894E-16
+ NE=1.4
+ BF=324.4
+ IKF=0.109
+ VAF=82
+ NR=0.9931
+ ISC=9.982p
+ NC=1.763
+ BR=8.29
+ IKR=0.09
+ VAR=17.9
+ RB=10
+ IRB=5E-06
+ RBM=5
+ RE=0.649
+ RC=0.7014
+ XTB=0
+ EG=1.11
+ XTI=3
+ CJE=1.244E-11
+ VJE=0.7579
+ MJE=0.3656
+ TF=4.908E-10
+ XTF=9.51
+ VTF=2.927
+ ITF=0.3131
+ PTF=0
+ CJC=3.347p
+ VJC=0.5463
+ MJC=0.391
+ XCJC=0.6193
+ TR=9E-08
+ CJS=0
+ VJS=0.75
+ MJS=0.333
+ FC=0.979
*
.MODEL QTR2 PNP
+ IS=2.014E-14
+ NF=0.9974
+ ISE=6.578f
+ NE=1.45
+ BF=315.3
+ IKF=0.079
+ VAF=39.15
+ NR=0.9952
+ ISC=1.633E-14
+ NC=1.15
+ BR=8.68
+ IKR=0.09
+ VAR=9.5
+ RB=10
+ IRB=5E-06
+ RBM=5E-06
+ RE=0.663
+ RC=0.718
+ XTB=0
+ EG=1.11
+ XTI=3
+ CJE=1.135E-11
+ VJE=0.7071
+ MJE=0.3808
+ TF=6.546E-10
+ XTF=5.387
+ VTF=6.245
+ ITF=0.2108
+ PTF=0
+ CJC=6.395p
+ VJC=0.4951
+ MJC=0.44
+ XCJC=1
+ TR=5.5E-08
+ CJS=0
+ VJS=0.75
+ MJS=0.333
+ FC=0.9059
.ENDS
*

.subckt KT3123A-2 C B E
Lc c 1 1n
Le e 3 0.5n
Lb b 2 1n
cce 1 3 300f
ccb 1 2 50f
cbe 2 3 180f
Lcv 1 10 0.5n
Lev 3 30 0.3n
Lbv 2 20 0.6n
q 10 20 30 model7
.model model7 pnp IS=172e-18 BF=76 NF=1 VAF=22 IKF=30m ISE=5.3f NE=1.83 BR=5 NR=1.1 VAR=1.7 IKR=1.7m ISC=15f NC=1.3 RB=10 RE=0.5 RC=5 CJE=1.5p VJE=630m MJE=271m TF=20p VTF=1.0 XTF=0.8 ITF=10m xcjc=0.5 CJC=1.5p VJC=289.3m MJC=271m TR=1n XTB=2
.ends KT3123A-2

.SUBCKT BFG31_PH 4 5 6
*NODES C B E
*SOT223C
Q1 1 2 3 BFQ32
L1 5 8 .025N
L2 4 1 1.19N
L3 6 7 .60N
Le 3 7 .2N
Lb 8 2 1.5N
CBE 8 7 182F
CCE 1 7 249F
CCB 8 1 16F
.MODEL BFQ32 PNP IS=1.04E-014 BF=113.265 NF=1.0122 VAF=23.6312
+ IKF=.505043 ISE=8.713E-014 NE=1.5733 BR=28.169 NR=1.0039
+ VAR=1.4144 IKR=4.169E-003 ISC=1.044E-011 NC=1.6699 RB=1
+ IRB=1E-006 RBM=1 RE=.3 RC=2.42 EG=1.11 XTI=3 CJE=3.954E-012
+ VJE=.6 MJE=.44867 TF=3E-012 XTF=18.687 VTF=8.343 ITF=.22248
+ CJC=3.399E-012 VJC=.48814 MJC=.27749 XCJC=.18 TR=2.571E-009
+ VJS=.75 FC=.90417
.ENDS


* c b e
.SUBCKT NE68033 2 1 3
Q1 5 7 8 NE68000
CCB 7 5 0.08p
CCE 5 8 0.08p
LE 8 6 0.95E-9
LB 4 7 0.65E-9
CCBPKG 4 5 0.1p
CCEPKG 5 6 0.1p
CBEPKG 4 6 0.01p
LBX 1 4 0.3E-9
LCX 5 2 0.5E-9
LEX 6 3 0.3E-9
* Q1 model parameters are as follows:
.MODEL NE68000 NPN
+(IS=3.84e-16 BF=124.9 NF=1.05 VAF=11.9 IKF=0.027
+ ISE=1e-14 NE=2.17 BR=1 NR=1.05 VAR=0
+ IKR=0 ISC=0 NC=2 RE=0.6 RB=17.9
+ RBM=1.02 IRB=4.01e-4 RC=10.5 CJE=0.358p VJE=0.71
+ MJE=0.5 CJC=0.162p VJC=0.79 MJC=0.64 XCJC=0
+ FC=0.5 TF=8.7p
+ XTF=18 VTF=19.1 ITF=0.082 PTF=0 TR=0.635n
+ EG=1.11 XTB=0 XTI=3)
.ENDS

* c b e
.SUBCKT NE68133 2 1 3
Q1 5 7 8 NE68100
CCB 7 5 0.07p
CCE 5 8 0.01p
LE 8 6 1.2E-9
LB 4 7 0.9E-9
CCBPKG 4 5 0.2p
CCEPKG 5 6 0.2p
CBEPKG 4 6 0.01p
LBX 1 4 0.3E-9
LCX 5 2 0.6E-9
LEX 6 3 0.3E-9
.MODEL NE68100 NPN
+( IS=2.7e-16 BF=185 NF=1.02 VAF=15 IKF=0.055
+ ISE=1.77e-11 NE=2.1 BR=1 NR=1 VAR=0
+ IKR=0 ISC=0 NC=2 RE=0.6 RB=12
+ RBM=3.7 IRB=1.2e-5 RC=8 CJE=1.2p VJE=0.77
+ MJE=0.5 CJC=0.8p VJC=0.27 MJC=0.56 XCJC=0
 FC=0.5 TF=14p
+ XTF=3 VTF=25 ITF=0.1 PTF=0 TR=0.3n
+ EG=1.11 XTB=0 XTI=3)
.ENDS

.SUBCKT NESG2021M05 7 8 9

Ccb 2 5 30f
Cce 2 6 1f
Cbe 7 9 30f
Cb 1 2 1f
Ce 2 3 180f
Lb 5 7 0.9e-9
Lc 2 8 1.2e-9
Le 6 9 0.17e-9
Lb2 1 5 0.35e-9
Le2 3 6 0.16e-9
Qnpn 2 1 3 qNESG2021M05_v16_M

.MODEL qNESG2021M05_v16_M NPN
+(IS=4.429f BF=331 NF=1.141 VAF=15
+ IKF=31.08e-3 BR=17.1 NR=1.102 VAR=2.7
+ IKR=26.09e-3 ISE=5.324f NE=1.609 ISC=100e-18
+ NC=1.197 RB=1.0 IRB=100e-6 RBM=0.05
+ RE=1.6 RC=5 CJE=459.9f VJE=767.5e-3
+ MJE=64.7e-3 CJC=109.4f VJC=672.6e-3 MJC=108.3e-3
+ XCJC=1 CJS=0 VJS=0.75 MJS=0
+ FC=0.8 TF=4p XTF=10 VTF=5
+ ITF=0.5 TR=0 PTF=20 EG=1.11
+ XTI=5.2 XTB=1.3)
.ENDS qNESG2021M05

.SUBCKT BFR181 200 100 300
L1 1 10 0.85nH
L2 2 20 0.001nH
L3 3 30 0.69nH
C1 10 20 84fF
C2 20 30 165fF
C3 30 10 73fF
L4 10 100 0.51nH
L5 20 200 0.49nH
L6 30 300 0.61nH
Q1 2 1 3 B181
.MODEL B181 NPN(
+ IS=1.0519e-18 BF=96.461 NF=0.90617
+ VAF=22.403 IKF=0.12146 ISE=1.2603e-14
+ NE=1.7631 BR=16.504 NR=0.87757
+ VAR=5.1127 IKR=0.24951 ISC=1.1195e-17
+ NC=1.6528 RB=9.9037 IRB=0.00069278
+ RBM=6.6315 RE=2.1372 RC=2.2171
+ CJE=1.8168f VJE=0.73155 MJE=0.43619
+ TF=1.7028e-11 XTF=0.33814 VTF=0.12571
+ ITF=0.0010549 PTF=0 CJC=3.1969e-13
+ VJC=1.1633 MJC=0.30013 XCJC=0.082903
+ TR=2.7449n
+ XTB=0 EG=1.11
+ XTI=3 FC=0.99768)
.ENDS


.SUBCKT NE677M04 7 8 9

Ccb 2 5 450f
Cce 2 6 80f
Cbe 7 9 5f
Cb 1 2 50f
Ce 2 3 100f
Lb 5 7 1.25e-9
Lc 2 8 0.8e-9
Le 6 9 0.45e-9
Lb2 1 5 0.01e-9
Le2 3 6 0.01e-9
Qnpn 2 1 3 q2SC5751_v16_M

.MODEL q2SC5751_v16_M NPN
+(IS=153.3e-18 BF=183.2 NF=1.0 VAF=41.0
+ IKF=514.6e-3 BR=16.59 NR=1.0 VAR=2.236
+ IKR=10.58e-3 ISE=3.304f NE=2.0 ISC=2.567e-18
+ NC=1.107 RB=3.0 IRB=75.9e-5 RBM=1.0
+ RE=1.2 RC=3.0 CJE=945.4f VJE=919.1e-3
+ MJE=310.8e-3 CJC=262.5f VJC=993.4e-3 MJC=841.4e-3
+ XCJC=0.1 CJS=0 VJS=0.75 MJS=0
+ FC=0.50 TF=10.6p XTF=0.39 VTF=0.668
+ ITF=0.06 TR=0 PTF=20 EG=1.11
+ XTI=3.0 XTB=0)
.ENDS NE677M04



* bfg591 philips semiconductors
* date : september 1995
* package : sot223a die model : bfr590
* 1: collector; 2: base; 3: emitter;
.subckt bfg591 1 2 3
q1 6 5 7 chip590
* sot223a parasitic model
lb 4 5 1.5n
le 7 8 .5n
l1 2 4 .025n
l2 1 6 1.19n
l3 3 8 .6n
ccb 4 6 16f
cbe 4 8 182f
.model chip590 npn is=1.3419f bf=123.5 nf=0.9881 vaf=75.852 ikf=9.65644 ise=2.322e-13 ne=2.1341 br=10.228 nr=1.0169 var=1.99263 ikr=0.294 isc=2.11091e-16 nc=0.9972 rb=5 re=1.2756 rc =0.921 cje=3.822p vje =0.6 mje =0.349 tf=13.61p xtf=71.737 vtf=10.289 itf=1.92945 cjc=1.41p vjc=0.2194 mjc=0.1665
.ends bfg591

.SUBCKT BLT81_PH 4 5 6
*NODES C B E
*SOT223D
Q1 1 2 3 BLT81
L1 5 8 .025N
L2 4 1 1.19N
L3 6 7 .60N
Le 3 7 .2N
Lb 8 2 .75N
CBE 8 7 182F
CCE 1 7 249F
CCB 8 1 16F
.MODEL BLT81 NPN IS=1.074E-015 BF=26 NF=.9712 VAF=40 IKF=69.71
+ ISE=2.611E-009 NE=2.969 BR=6 NR=.9729 VAR=5.65 IKR=10
+ ISC=3.239E-011 NC=1.885 RB=1 RE=.01
+ RC =.8 EG=1.11 XTI=3 CJE=1.46E-011 VJE=.6 MJE=.289
+ TF=1.899E-011 XTF=136.6 VTF=1.019E-002 ITF=.1812 CJC=4.145p
+ VJC=.6498 MJC=.399 XCJC=.1 TR=8n FC=.4157
.ENDS


* BFM505 SPICE MODEL
* PHILIPS SEMICONDUCTORS
* Date : September 1995
*
* PACKAGE : SOT363 DIE MODEL : BFR505
* 1: COLLECTOR1; 2: BASE1; 3: EMITTER1; 4: COLLECTOR2; 5: BASE2; 6: EMITTER2
.SUBCKT BFM505_PH 2 3 1 5 6 4
Q1 7 8 9 9 BFR505
Q2 10 11 12 12 BFR505
* SOT363 parasitic model
Lb1 2 8 .6n
Lb2 5 11 .6n
Le1 3 9 1n
Le2 6 12 1n
Lp1 1 7 .4n
Lp2 4 10 .4n
Cc1b1 1 2 48f
Cc2b2 4 5 48f
Cc1b2 1 5 3f
Cc2b1 2 4 3f
Cc1e1 1 3 17f
Cc1e2 1 6 36f
Cc2e2 4 6 17f
Cc2e1 3 4 36f
Cb1b2 2 5 1f
Cc1c2 1 4 6f
Ce1e2 3 6 6f
Cb1e1 2 3 27f
Cb2e2 5 6 27f
Cb1e2 2 6 3f
Cb2e1 5 3 35f
*
* PHILIPS SEMICONDUCTORS Version: 1.0
* Filename: BFR505.PRM Date: Feb 1992
*
.MODEL BFR505 NPN
+ IS=1.34186E-016
+ BF=180
+ NF=0.988285
+ VAF=38.3491
+ IKF=0.15
+ ISE=2.78188E-014
+ NE=2.05149
+ BR=55.1997
+ NR=0.982213
+ VAR=2.45944
+ IKR=2.92072m
+ ISC=1.74527E-017
+ NC=1.06245
+ RB=20
+ RE=1.1719
+ RC=4.35
+ EG=1.11
+ XTI=3.
+ CJE=0.284731p
+ VJE=0.6
+ MJE=0.303697
+ TF=7.03759p
+ XTF=12.346
+ VTF=1.70189
+ ITF=30.6496m
+ CJC=0.242404p
+ VJC=0.188622
+ MJC=0.0414981
.ENDS

* BFM520 SPICE MODEL
* PHILIPS SEMICONDUCTORS
* Date : September 1995
*
* PACKAGE : SOT363 DIE MODEL : BFR520
* 1: COLLECTOR1; 2: BASE1; 3: EMITTER1; 4: COLLECTOR2; 5: BASE2; 6: EMITTER2
.SUBCKT BFM520_PH 2 3 1 5 6 4
Q1 7 8 9 9 BFR520
Q2 10 11 12 12 BFR520
* SOT363 parasitic model
Lb1 2 8 .6n
Lb2 5 11 .6n
Le1 3 9 1n
Le2 6 12 1n
Lp1 1 7 .4n
Lp2 4 10 .4n
Cc1b1 1 2 48f
Cc2b2 4 5 48f
Cc1b2 1 5 3f
Cc2b1 2 4 3f
Cc1e1 1 3 17f
Cc1e2 1 6 36f
Cc2e2 4 6 17f
Cc2e1 3 4 36f
Cb1b2 2 5 1f
Cc1c2 1 4 6f
Ce1e2 3 6 6f
Cb1e1 2 3 27f
Cb2e2 5 6 27f
Cb1e2 2 6 3f
*
* PHILIPS SEMICONDUCTORS Version: 1.0
* Filename: BFR520.PRM Date: Feb 1992
*
.MODEL BFR520 NPN
+ IS=1.01677E-015 BF=2.20182E+002 NF=1.00065 VAF=4.80619E+001 IKF=5.10042E-001
+ ISE=2.83095E-013 NE=2.03568 BR=1.00714E+002 NR=9.88109E-001 VAR=1.69288E+000
+ IKR=2.35262E-003 ISC=2.44898E-017 NC=1.02256 RB=10 IRB=1u RBM=10 RE=7.75349E-001
+ RC=2.21 EG=1.11 XTI=3 CJE=1.24548p VJE=0.6 MJE=2.58153E-001 TF=8.61625E-012
+ XTF=6.78866 VTF=1.41469 ITF=1.10365E-001 PTF=4.50197E+001 CJC=4.47646E-013 VJC=1.89234E-001
.ENDS

.SUBCKT UPA800T 1 2 3 6 5 4
Q1 7 8 10 UPA800Tx
.MODEL UPA800Tx NPN AF=1.0 BF=124.9 BR=1.0 CJC=0.162p
+ CJE=0.358p CJS=0.0 EG=1.11 FC=0.5 IKF=0.027 IKR=0.0
+ IRB=4.01e-4 IS=3.84e-16 ISC=0.0 ISE=1.0e-14 ITF=.082 KF=0.0
+ MJC=0.64 MJE=0.5 MJS=0.0 NC=2.0 NE=2.17 NF=1.04 NR=1.05
+ PTF=0.0 RB=17.9 RBM=1.02 RC=10.5 RE=0.6 TF=8.7p
+ TR=0.635e-9 VAF=11.9 VAR=0.0 VJC=0.791 VJE=0.711 VJS=0.750
+ VTF=19.1 XCJC=0.0 XTB=0.0 XTF=18.0 XTI=3.0
Q2 15 11 13 UPA800Tx
CCB1 7 8 0.08P
LB1 8 9 0.8N
CCBPKG1 7 9 0.07P
C_E1B2 10 11 0.05P
LB2 11 12 0.8N
C_B1B2 9 12 0.03P
C_C1B2 7 12 0.05P
LB_6 9 6 0.5N
LB_5 12 5 0.5N
LE2 13 14 0.5N
C_B2E2 12 14 0.05P
LE_4 14 4 0.5N
CCE2 15 13 0.08P
CCEPKG2 15 14 0.15P
CCBPKG2 15 12 0.05P
LC_3 3 15 0.5N
CCB2 15 11 0.08P
C_E1C2 15 16 0.05P
LE1 16 10 0.5N
CCE1 10 7 0.08P
C_C1E1 16 7 0.12P
LC_1 1 7 0.5N
LE_2 2 16 0.5N
.ENDS


.SUBCKT BC860C_SIE 1 2 3
Q 6 5 7 BC860/SIE 1.000
LC 1 6 0.350N
L1 2 4 0.400N
LB 4 5 0.500N
L2 3 8 0.400N
LE 8 7 0.600N
CGBC 4 6 70.00F
CGBE 4 8 0.150P
CGCE 6 8 15.00F
.MODEL BC860/SIE PNP (IS=28F NF=1 BF=284.436 VAF=43 IKF=0.38
+ ISE=24.903F NE=2.234 NR=1.005 BR=4.800 VAR=6.960 IKR=0.932 ISC=0.125P NC=2.074
+ RB=2.2 IRB=0.1M RBM=1.5 RE=0.3 RC=2.251
+ CJE=11.8P VJE=1. MJE=0.435 FC=0.75 CJC=8.7P VJC=0.9 MJC=0.6 XCJC=0.65
+ TF=0.600N TR=2.604N PTF=1 XTF=6.500 VTF=2. ITF=0.314 XTB=1.600 EG=1.11 XTI=3.3
+ KF=5F AF=1)
.ENDS

.SUBCKT BC850C 1 2 3
Q 6 5 7 BC850 1.000
LC 1 6 0.350N
L1 2 4 0.400N
LB 4 5 0.500N
L2 3 8 0.400N
LE 8 7 0.600N
CGBC 4 6 70.00F
CGBE 4 8 0.150P
CGCE 6 8 15.00F
.MODEL BC850 NPN (IS=45.000F NF=1.010 BF=516.544 VAF=74.000 IKF=0.708
+ ISE=55.668F NE=2.567 NR=1.015 BR=7.745 VAR=14.000 IKR=1.000
+ ISC=1.084P NC=4.063
+ RB=9.000 IRB=0.100M RBM=4.500
+ RE=0.350 RC=1.445
+ CJE=13.050P VJE=0.690 MJE=0.375 FC=0.750
+ CJC=4.100P VJC=0.750 MJC=0.420 XCJC=0.650
+ TF=0.620N TR=2.5N PTF=1.000
+ XTF=68.000 VTF=1.000 ITF=0.720
+ XTB=1.400 EG=1.110 XTI=3.200
+ KF=10.000F AF=1.000)
.ENDS

.SUBCKT BF824 1 2 3
* housing parasitics
LB 2 22 1.25E-09
LE 3 33 1.12E-09
LC 1 11 0.23E-09
CBCG 22 11 6.2E-14
CBEG 22 33 4.5E-14
CCEG 11 33 6.2E-14
Q1 11 22 33 QBF824
*
.MODEL QBF824 PNP(IS=3.686E-16 NF=0.9966 ISE=2.604E-16 NE=1.263 BF=48.63 IKF=0.081 VAF=69
+ NR=1.01 ISC=9.693E-13 NC=1.56 BR=1.682 IKR=0.1 VAR=23 RB=18 IRB=3E-06 RBM=2 RE=0.4232 RC=1.5
+ XTB=0 EG=1.11 XTI=3 CJE=1.99p VJE=0.7036 MJE=0.2976 TF=2.559E-10 XTF=4.5 VTF=6 ITF=0.1 PTF=0
+ CJC=3.103p VJC=0.4209 MJC=0.3358 XCJC=0.0464 TR=3E-08 FC=0.9506)
.ENDS

.SUBCKT NE97733 1 2 3
Q1 6 5 7 7 q
 Lb 4 5 .4n
 Le 7 8 .83n
 L1 2 4 .35n
 L2 1 6 .17n
 L3 3 8 .35n
 Ccb 4 6 71f
 Cbe 4 8 71f
.MODEL q PNP
+ IS=8.E-015
+ BF=44
+ NF=1 VAF=8 IKF=150ma
+ ISE=9.E-014
+ NE=1.75
+ BR=12
+ NR =1 VAR=3.
+ IKR=6ma ISC=2.3E-014 NC=1.5
+ RB=10 RE=0.2 RC=1.5
+ EG=1.11 XTI=3 xtb=0
+ CJE=1p VJE =0.6 MJE=0.38
+ TF=7p TR=300p XCJC =0.1 ptf=90
+ XTF=2.2 VTF=3 ITF=5ma
+ CJC=1p VJC=0.6 MJC=0.2
.ENDS

.subckt BBY65-02V k a
b 0 f i=1m*Table(v(k,av),-1,36.5,0.,36.5,0.3,29.5,1,20.25,2,9.8,3,4.45,4.7,2.7)
rc 0 f 1k
cr 0 f 10p
bc k av i=i(va)*(v(f)-1)
C k avv 1p
va avv av 0
r av a 0.6
d av k diod
.model diod d isr=10n
.ends
*
.subckt 74xx123 A B nR Q nQ
*param vcc=5 tz=25n T=150n R=60
A1 N001 0 N004 0 N009 N005 N002 0 DFLOP Vhigh={VCC}
A5 A 0 0 0 0 N003 0 0 BUF Vhigh={VCC}
A6 nR 0 0 0 0 N008 0 0 BUF Vhigh={VCC}
A7 N003 0 N006 nR 0 0 N004 0 AND Vhigh={VCC} td=10n
A4 B 0 0 0 0 0 N006 0 BUF Vhigh={VCC}
A3 N002 0 0 0 0 0 Q 0 BUF Vhigh={VCC} TD={tz-10n} Rout={R} Trise=3n
A8 N005 0 0 0 0 0 nQ 0 BUF Vhigh={VCC} TD={tz-10n} Rout={R} Trise=3n
A9 0 N008 0 N007 0 0 N009 0 OR Vhigh={VCC} td=10n
V4 N001 0 {vcc}
C1 N007 0 {(T-10n)/69315} ic=0
D1 N007 N002 Dd
.model Dd d Ron=0.1 Roff=100k
.end 74xx123

.subckt 74xx123q A B nR Q nQ
*param vcc=5 tz=25n T=150n R=60
A1 N001 0 N004 0 N008 N005 N002 0 DFLOP Vhigh={VCC}
A5 A 0 0 0 0 N003 0 0 BUF Vhigh={VCC}
A6 nR 0 0 0 0 N007 0 0 BUF Vhigh={VCC}
A7 N003 0 B nR 0 0 N004 0 AND Vhigh={VCC} td=10n
A3 N002 0 0 0 0 0 Q 0 BUF Vhigh={VCC} TD={tz-10n} Rout={R} Trise=3n
A8 N005 0 0 0 0 0 nQ 0 BUF Vhigh={VCC} TD={tz-10n} Rout={R} Trise=3n
A9 0 N007 0 N006 0 0 N008 0 OR Vhigh={VCC} td=10n
V4 N001 0 {vcc}
C1 N006 0 {(T-10n)/69315} ic=0
D1 N006 N002 D
A2 N004 0 N010 0 0 0 N009 0 AND Vhigh={VCC}
A4 N004 0 0 0 0 N010 0 0 BUF Vhigh={VCC} td=10n
S1 0 N006 N009 0 SW1
.model d d Ron=0.1 Roff=100k
.model sw1 sw Ron=0.01 Roff=1T Vt={vcc/2} Vh=10m
.end 74xx123q

*Opto-Isolators H11L1
* author - Bordodynov
.subckt H11L1 Anode Cathode Vcc Gnd Out params: ion=1.33m ioff=1m KT=1; kt=0.5-4
Q1 Out n12 Gnd 0 QOPTO
R7 n12 N001 1K
D1 13 Cathode1 DLED0
Vm Anode 13 0
D2 Anode Cathode1 DLED
Rd Catode1 catode 0.8
A1 N003 0 0 0 0 outv 0 0 SCHMITT Vh={Vh0}, Vt=0.5 Trise=0.1u
B1 N002 0 V=limit(0,i(Vm)*2/({ion}+{ioff}),10)
R1 N002 N003 1k
C1 N003 0 {Kt*880p}
B2 Vcc N001 V=v(outv)*v(vcc,gnd)
.MODEL QOPTO NPN(BF=500 VAF=100 IKF=100M CJC=5P CJE=100P TR=15N TF=15N)
.MODEL DLED0 D(N=2 is=0.5e-14)
.MODEL DLED D(N=2 CJO=18P is=0.5e-14)
.param Vh0=({ion}-{ioff})/({ion}+{ioff})/2
.ends H11L1


*Opto-Isolators 3kV 19%
.SUBCKT 6N136 2 3 5 6 8 7
* ANODE CATHODE EMITTER col phkat BAZA
*TI 6N136
* Current Transfer Ratio (CTR)=(H*G*BF)=19%
VM 2 60
D1 60 3 LED
d2 2 3 ledc
H1 70 0 VM .00152
R1 70 80 1K
C1 80 0 80PF
G1 8 7 80 0 1
d3 7 8 phd
Q1 6 7 5 QOPTO
.MODEL LED D(N=2.63 RS=1.25 IS=757f)
.MODEL LEDc D(N=5 RS=1.25 CJO=60PF IS=10p)
.model phd d cjo=5p is=1p
.MODEL QOPTO NPN(IS=7p NF=1.23 CJC=2PF
+ CJE=7PF TF=.55NS TR=10NS BF=125 BR=10
+ IKF=100MA VAF=100)
.ENDS

* 6n137.sub
* Helmut Sennewald
.subckt 6n137 A K S C V E
D1 A N001 LED
C1 A K 1p
V1 N001 K 0
R2 ta S 100
C2 ta S 200p
B2 S ta I=TABLE(I(V1), 0,0,2.5m,50m,15m, 55m)
C10 A C 0.1p
C11 K S 0.1p
M1 C ga S S NMOS1
C5 C ga 10p
De1 E V Dd1
R6 V E 6k
R7 E S 100k
B4 0 en I=TABLE(V(E,S), 0,0,1.4,0,1.5, 1m)
R4 en 0 1k
R5 V S 1.5k
C6 C S 10p
C4 en 0 10p
B3 S ga I=V(ta,s)*V(en)*10m
R3 ga S 100
C3 ga S 20p
.model LED D(Is=1e-17 Rs=4 N=1.5 Eg=1.7 CJO=5p Tt=5n)
.model NMOS1 NMOS(Vt0=2 Kp=0.03 Rs=5 Rd=5 lambda=0.02)
.model Dd1 D(Is=1e-7 Rs=10 Cjo=5p Tt=5n)
.ends 6n137

* HCNR200 Linear Optocoupler SPICE Model
* LED Cathode
* | LED Anode
* | | PD1 Cathode
* | | | PD1 Anode
* | | | | PD2 Anode
* | | | | | PD2 Cathode
* | | | | | |
.SUBCKT HCNR200 1 2 3 4 5 6
* LED circuit
QLED1 8 2 7 QCPL .5
QLED2 9 2 7 QCPL .5
VLED 7 1 DC .685
VPD1 8 1 DC 2
VPD2 9 1 DC 2
* Input photodiode circuit
DPD1 4 3 DPHOTO
FPD1 3 4 VPD1 -1
CPD1 4 3 8P
* Output photodiode circuit
DPD2 5 6 DPHOTO
FPD2 6 5 VPD2 -1
CPD2 5 6 8P
* Photodiode model
.MODEL DPHOTO D(IS=4.5p RS=150 N=1.3 XTI=4 EG=1.11
+ CJO=14P M=1.96 VJ=1.9)
* LED/Optical-coupling transistor model
.model QCPL NPN(IS=2.214E-19 BF=10m NF=1.010 IKF=11.00m ISE=1.167P
+ NE=1.737 RB=3.469 VAF=100 TF=1.77U CJE=80P)
.ENDS HCNR200

.subckt hcpl3180 NC AN CA NC Vee Vo1 Vo Vcc
V1 N005 CA 0
D1 AN N005 DINP
D2 Vcc N002 DOUT
W1 N001 N004 V1 SWON
W2 N004 Vee V1 SWOFF