***************************************************************************
* 				TRIACs PSpice Models                                      *
***************************************************************************
* Note :
*
*	This TRIAC model simulates:
*	-Igt (the same for all quadrants) MAX of the specification
*note: for 4 quadrants TRIAC, IGT Q4 is taken into account for all quadrants
*   -Il  (the same for all quadrants) Typ of the specification
*   -Ih  (the same for both polarity) Typ of the specification
*   -VDRM
*   -VRRM
*   -(dI/dt)c and (dV/dt)c parameters are simulated only if those
*    constraints exceed very highly the specified limits.
*   -Power dissipation is realistic and correspond to a typical TRIAC
*
*   All these parameters are constant, and don't vary neither with
*   temperature nor other parameters.
*
*   The "STANDARD" parameter switch between 4 quadrants TRIACs (STANDARD = 1)
*   and 3 quadrants TRIACs (STANDARD = 0).
*   The "STANDARD" parameter maintains or suppress the triggering possibility of
*   the TRIAC in the fourth quadrant, and has absolutely NO EFFECT on other
*   parameters.
*
*   For a correct triac behavior, the "Maximum step size" must be below
*   or equal 20us.

.subckt Triac_ST A K G PARAMS:
+ Vdrm=400v
+ Igt=20ma
+ Ih=6ma
+ Rt=0.01
+ Standard=1
*
* Vdrm : Repetitive forward off-state voltage
* Ih   : Holding current
* Igt  : Gate trigger current
* Rt   : Dynamic on-state resistance
* Standard : Differenciation between Snubberless and Standard TRIACs
* (Standard=0 => Snubberless TRIACs, Standard=1 => Standard TRIACs)
*
****************************
* Power circuit *
****************************
*
****************************
*Switch circuit*
****************************
* Q1 & Q2 Conduction
S_S3           A Plip1 positive 0 Smain
*RS_S3         positive 0 1G
D_DAK1         Plip1 Plip2 Dak
R_Rlip         Plip1 Plip2  1k
V_Viak         Plip2 K DC 0 AC 0
*
* Q3 & Q4 Conduction
S_S4           A Plin1 negative 0 Smain
*RS_S4         negative 0 1G
D_DKA1         Plin2 Plin1 Dak
R_Rlin         Plin1 Plin2  1k
V_Vika         K Plin2 DC 0 AC 0
****************************
*Gate circuit*
****************************
R_Rgk          G K  10G
D_DGKi         Pg2 G Dgk
D_DGKd         G Pg2 Dgk
V_Vig          Pg2 K DC 0 AC 0
R_Rlig         G Pg2  1k
*
****************************
*Interface circuit*
****************************
* positive pilot
R_Rp              Controlp positive  2.2
C_Cp              0 positive  1u
E_IF15OR3         Controlp 0 VALUE {IF(  ( (V(CMDIG)>0.5) | (V(CMDILIH)>0.5) | (V(CMDVdrm)>0.5) ),400,0 )}
*
* negative pilot
R_Rn              Controln negative  2.2
C_Cn              0 negative  1u
E_IF14OR3         Controln 0 VALUE {IF(  ( (V(CMDIG)>0.5) | (V(CMDILIHN)>0.5) |  (V(CMDVdrm)>0.5) ),400,0 )}
*
****************************
* Pilots circuit *
****************************
****************************
* Pilot Gate     *
****************************
E_IF1IG             inIG 0 VALUE {IF(  ( ABS(I(V_Vig)) ) > (Igt-1u) ,1,0 )}
E_MULT2MULT         CMDIG 0 VALUE {V(Q4)*V(inIG)}
E_IF2Quadrant4      Q4 0 VALUE {IF(((I(V_Vig)>(Igt-0.000001))&((V(A)-V(K))<0)&(Standard==0)),0,1)}
*
****************************
* Pilot IHIL     *
****************************
*
E_IF10IL         inIL 0 VALUE {IF( ((I(V_Viak))>(Ih/2)),1,0 )}
E_IF5IH          inIH 0 VALUE {IF( ((I(V_Viak))>(Ih/3)),1,0 )}
*
* Flip_flop IHIL
E_IF6DIHIL         SDIHIL 0 VALUE {IF((V(inIL)*V(inIH)+V(inIH)*(1-V(inIL))*(V(CMDILIH)) )>0.5,1,0)}
C_CIHIL            CMDILIH 0  1n
R_RIHIL            SDIHIL CMDILIH  1K
R_RIHIL2           CMDILIH 0  100Meg
*
****************************
* Pilot IHILN    *
****************************
*
E_IF11ILn           inILn 0 VALUE {IF( ((I(V_Vika))>(Ih/2)),1,0 )}
E_IF3IHn            inIHn 0 VALUE {IF( ((I(V_Vika))>(Ih/3)),1,0 )}
* Flip_flop IHILn
E_IF4DIHILN         SDIHILN 0 VALUE {IF((V(inILn)*V(inIHn)+V(inIHn)*(1-V(inILn))*(V(CMDILIHN)) )>0.5,1,0)}
C_CIHILn            CMDILIHN 0  1n
R_RIHILn            SDIHILN CMDILIHN  1K
R_RIHILn2           CMDILIHN 0  100Meg
*
****************************
* Pilot VDRM     *
****************************
E_IF8Vdrm           inVdrm 0 VALUE {IF( (ABS(V(A)-V(K))>(Vdrm*1.3)),1,0 )}
E_IF9IHVDRM         inIhVdrm 0 VALUE {IF( (I(V_Viak)>(Vdrm*1.3)/1.2meg)| (I(V_Vika)>(Vdrm*1.3)/1.2meg),1,0)}
* Flip_flop VDRM
E_IF7DVDRM          SDVDRM 0 VALUE {IF((V(inVdrm)+(1-V(inVdrm))*V(inIhVdrm)*V(CMDVdrm) )>0.5,1,0)}
C_CVdrm             CMDVdrm 0  1n
R_RVdrm             SDVDRM CMDVdrm  100
R_RVdrm2            CMDVdrm 0  100Meg
*
****************************
* Switch Model *
****************************
.MODEL Smain VSWITCH Roff=1.2meg Ron={Rt} Voff=0 Von=100
****************
* Diodes Model *
****************
.MODEL  Dak D( Is=3E-12 Cjo=5pf)
.MODEL  Dgk D( Is=1E-16 Cjo=50pf Rs=5)
.ends

.subckt T405-800B A K G
X1 A K G Triac_ST params:
+ Vdrm=800v
+ Igt=5ma
+ Ih=10ma
+ Rt=0.12
+ Standard=1
* 2019 / ST / Rev 0
.ends

.subckt T405-700B A K G
X1 A K G Triac_ST params:
+ Vdrm=700v
+ Igt=5ma
+ Ih=10ma
+ Rt=0.12
+ Standard=1
* 2019 / ST / Rev 0
.ends

.subckt T435-700 A K G
X1 A K G Triac_ST params:
+ Vdrm=700v
+ Igt=35ma
+ Ih=35ma
+ Rt=0.120
+ Standard=1
* 2019 / ST / Rev 0
.ends

.subckt T830-8FP A K G
X1 A K G Triac_ST params:
+ Vdrm=800v
+ Igt=30ma
+ Ih=50ma
+ Rt=0.04
+ Standard=1
* 2015 / ST / Rev 0
.ends

.subckt Z00607MA A K G
X1 A K G Triac_ST params:
+ Vdrm=600v
+ Igt=7ma
+ Ih=5ma
+ Rt=0.42
+ Standard=1
* 1999 / ST / Rev 0
.ends

.subckt Z0103M A K G
X1 A K G Triac_ST params:
+ Vdrm=600v
+ Igt=5ma
+ Ih=7ma
+ Rt=0.4
+ Standard=1
* 2008 / ST / Rev 1
.ends

.subckt Z0103N A K G
X1 A K G Triac_ST params:
+ Vdrm=800v
+ Igt=5ma
+ Ih=7ma
+ Rt=0.4
+ Standard=1
* 2008 / ST / Rev 1
.ends

.subckt Z0107M A K G
X1 A K G Triac_ST params:
+ Vdrm=600v
+ Igt=7ma
+ Ih=10ma
+ Rt=0.4
+ Standard=1
* 2008 / ST / Rev 1
.ends

.subckt Z0107N A K G
X1 A K G Triac_ST params:
+ Vdrm=800v
+ Igt=7ma
+ Ih=10ma
+ Rt=0.4
+ Standard=1
* 2008 / ST / Rev 1
.ends

.subckt Z0109M A K G
X1 A K G Triac_ST params:
+ Vdrm=600v
+ Igt=10ma
+ Ih=10ma
+ Rt=0.4
+ Standard=1
* 2008 / ST / Rev 1
.ends

.subckt Z0109N A K G
X1 A K G Triac_ST params:
+ Vdrm=800v
+ Igt=10ma
+ Ih=10ma
+ Rt=0.4
+ Standard=1
* 2008 / ST / Rev 1
.ends

.subckt Z0110M A K G
X1 A K G Triac_ST params:
+ Vdrm=600v
+ Igt=25ma
+ Ih=25ma
+ Rt=0.4
+ Standard=1
* 2008 / ST / Rev 1
.ends

.subckt Z0402M A K G
X1 A K G Triac_ST params:
+ Vdrm=600v
+ Igt=3ma
+ Ih=3ma
+ Rt=0.18
+ Standard=1
* 1999 / ST / Rev 0
.ends

.subckt Z0405M A K G
X1 A K G Triac_ST params:
+ Vdrm=600v
+ Igt=5ma
+ Ih=5ma
+ Rt=0.18
+ Standard=1
* 1999 / ST / Rev 0
.ends

.subckt Z0405N A K G
X1 A K G Triac_ST params:
+ Vdrm=800v
+ Igt=5ma
+ Ih=5ma
+ Rt=0.18
+ Standard=1
* 1999 / ST / Rev 0
.ends

.subckt Z0409M A K G
X1 A K G Triac_ST params:
+ Vdrm=600v
+ Igt=10ma
+ Ih=10ma
+ Rt=0.18
+ Standard=1
* 1999 / ST / Rev 0
.ends

.subckt Z0409N A K G
X1 A K G Triac_ST params:
+ Vdrm=800v
+ Igt=10ma
+ Ih=10ma
+ Rt=0.18
+ Standard=1
* 1999 / ST / Rev 0
.ends

.subckt Z0410M A K G
X1 A K G Triac_ST params:
+ Vdrm=600v
+ Igt=25ma
+ Ih=25ma
+ Rt=0.18
+ Standard=1
* 1999 / ST / Rev 0
.ends

.subckt Z0410N A K G
X1 A K G Triac_ST params:
+ Vdrm=800v
+ Igt=25ma
+ Ih=25ma
+ Rt=0.18
+ Standard=1
* 1999 / ST / Rev 0
.ends

.subckt BTB04-600SL A K G
X1 A K G Triac_ST params:
+ Vdrm=600v
+ Igt=25ma
+ Ih=15ma
+ Rt=0.1
+ Standard=1
* 2008 / ST / Rev 0
.ends

.subckt T405Q-600 A K G
X1 A K G Triac_ST params:
+ Vdrm=600v
+ Igt=10ma
+ Ih=10ma
+ Rt=0.1
+ Standard=1
* 2008 / ST / Rev 0
.ends

.subckt BTA06-600C A K G
X1 A K G Triac_ST params:
+ Vdrm=600v
+ Igt=50ma
+ Ih=25ma
+ Rt=0.06
+ Standard=1
* 2008 / ST / Rev 1
.ends

.subckt BTA06-800C A K G
X1 A K G Triac_ST params:
+ Vdrm=800v
+ Igt=50ma
+ Ih=25ma
+ Rt=0.06
+ Standard=1
* 2013 / ST / Rev 0
.ends

.subckt BTB06-600C A K G
X1 A K G Triac_ST params:
+ Vdrm=600v
+ Igt=50ma
+ Ih=25ma
+ Rt=0.06
+ Standard=1
* 2008 / ST / Rev 1
.ends

.subckt BTA06-600B A K G
X1 A K G Triac_ST params:
+ Vdrm=600v
+ Igt=100ma
+ Ih=50ma
+ Rt=0.06
+ Standard=1
* 2008 / ST / Rev 1
.ends

.subckt BTB06-600B A K G
X1 A K G Triac_ST params:
+ Vdrm=600v
+ Igt=100ma
+ Ih=50ma
+ Rt=0.06
+ Standard=1
* 2008 / ST / Rev 1
.ends

.subckt BTA08-600C A K G
X1 A K G Triac_ST params:
+ Vdrm=600v
+ Igt=50ma
+ Ih=25ma
+ Rt=0.05
+ Standard=1
* 2008 / ST / Rev 1
.ends

.subckt BTA08-800C A K G
X1 A K G Triac_ST params:
+ Vdrm=800v
+ Igt=50ma
+ Ih=25ma
+ Rt=0.05
+ Standard=1
* 2008 / ST / Rev 1
.ends

.subckt BTB08-600C A K G
X1 A K G Triac_ST params:
+ Vdrm=600v
+ Igt=50ma
+ Ih=25ma
+ Rt=0.05
+ Standard=1
* 2008 / ST / Rev 1
.ends

.subckt BTB08-800C A K G
X1 A K G Triac_ST params:
+ Vdrm=800v
+ Igt=50ma
+ Ih=25ma
+ Rt=0.05
+ Standard=1
* 2013 / ST / Rev 0
.ends

.subckt BTA08-600B A K G
X1 A K G Triac_ST params:
+ Vdrm=600v
+ Igt=100ma
+ Ih=50ma
+ Rt=0.05
+ Standard=1
* 2008 / ST / Rev 1
.ends

.subckt BTB08-600B A K G
X1 A K G Triac_ST params:
+ Vdrm=600v
+ Igt=100ma
+ Ih=50ma
+ Rt=0.05
+ Standard=1
* 2008 / ST / Rev 1
.ends

.subckt BTA10-600C A K G
X1 A K G Triac_ST params:
+ Vdrm=600v
+ Igt=50ma
+ Ih=25ma
+ Rt=0.04
+ Standard=1
* 1999 / ST / Rev 0
.ends

.subckt BTA10-600B A K G
X1 A K G Triac_ST params:
+ Vdrm=600v
+ Igt=100ma
+ Ih=50ma
+ Rt=0.04
+ Standard=1
* 1999 / ST / Rev 0
.ends

.subckt BTA12-600C A K G
X1 A K G Triac_ST params:
+ Vdrm=600v
+ Igt=50ma
+ Ih=25ma
+ Rt=0.035
+ Standard=1
* 2008 / ST / Rev 1
.ends

.subckt BTB12-600C A K G
X1 A K G Triac_ST params:
+ Vdrm=600v
+ Igt=50ma
+ Ih=25ma
+ Rt=0.035
+ Standard=1
* 2008 / ST / Rev 1
.ends

.subckt BTA12-600B A K G
X1 A K G Triac_ST params:
+ Vdrm=600v
+ Igt=100ma
+ Ih=50ma
+ Rt=0.035
+ Standard=1
* 2008 / ST / Rev 1
.ends

.subckt BTA12-800B A K G
X1 A K G Triac_ST params:
+ Vdrm=800v
+ Igt=100ma
+ Ih=50ma
+ Rt=0.035
+ Standard=1
* 2008 / ST / Rev 1
.ends

.subckt BTB12-600B A K G
X1 A K G Triac_ST params:
+ Vdrm=600v
+ Igt=100ma
+ Ih=50ma
+ Rt=0.035
+ Standard=1
* 2008 / ST / Rev 1
.ends

.subckt BTB12-800B A K G
X1 A K G Triac_ST params:
+ Vdrm=800v
+ Igt=100ma
+ Ih=50ma
+ Rt=0.035
+ Standard=1
* 2008 / ST / Rev 1
.ends

.subckt BTA16-600B A K G
X1 A K G Triac_ST params:
+ Vdrm=600v
+ Igt=100ma
+ Ih=50ma
+ Rt=0.025
+ Standard=1
* 1999 / ST / Rev 0
.ends

.subckt BTA16-600C A K G
X1 A K G Triac_ST params:
+ Vdrm=600v
+ Igt=50ma
+ Ih=25ma
+ Rt=0.025
+ Standard=1
* 2008 / ST / Rev 0
.ends

.subckt BTA16-800B A K G
X1 A K G Triac_ST params:
+ Vdrm=800v
+ Igt=100ma
+ Ih=50ma
+ Rt=0.025
+ Standard=1
* 1999 / ST / Rev 0
.ends

.subckt BTB16-600B A K G
X1 A K G Triac_ST params:
+ Vdrm=600v
+ Igt=100ma
+ Ih=50ma
+ Rt=0.025
+ Standard=1
* 1999 / ST / Rev 0
.ends

.subckt BTB16-600C A K G
X1 A K G Triac_ST params:
+ Vdrm=600v
+ Igt=50ma
+ Ih=25ma
+ Rt=0.025
+ Standard=1
* 2008 / ST / Rev 0
.ends

.subckt BTB16-800B A K G
X1 A K G Triac_ST params:
+ Vdrm=800v
+ Igt=100ma
+ Ih=50ma
+ Rt=0.025
+ Standard=1
* 1999 / ST / Rev 0
.ends

.subckt BTB24-600B A K G
X1 A K G Triac_ST params:
+ Vdrm=600v
+ Igt=100ma
+ Ih=80ma
+ Rt=0.016
+ Standard=1
* 2008 / ST / Rev 1
.ends

.subckt BTB24-800B A K G
X1 A K G Triac_ST params:
+ Vdrm=800v
+ Igt=100ma
+ Ih=80ma
+ Rt=0.016
+ Standard=1
* 2008 / ST / Rev 1
.ends

.subckt BTA25-600B A K G
X1 A K G Triac_ST params:
+ Vdrm=600v
+ Igt=100ma
+ Ih=80ma
+ Rt=0.016
+ Standard=1
* 1999 / ST / Rev 0
.ends

.subckt BTA25-800B A K G
X1 A K G Triac_ST params:
+ Vdrm=800v
+ Igt=100ma
+ Ih=80ma
+ Rt=0.016
+ Standard=1
* 1999 / ST / Rev 0
.ends

.subckt BTA26-600B A K G
X1 A K G Triac_ST params:
+ Vdrm=600v
+ Igt=100ma
+ Ih=80ma
+ Rt=0.016
+ Standard=1
* 2008 / ST / Rev 1
.ends

.subckt BTA26-800B A K G
X1 A K G Triac_ST params:
+ Vdrm=800v
+ Igt=100ma
+ Ih=80ma
+ Rt=0.016
+ Standard=1
* 2008 / ST / Rev 1
.ends

.subckt BTB26-600B A K G
X1 A K G Triac_ST params:
+ Vdrm=600v
+ Igt=100ma
+ Ih=80ma
+ Rt=0.016
+ Standard=1
* 2008 / ST / Rev 1
.ends

.subckt BTA40-600B A K G
X1 A K G Triac_ST params:
+ Vdrm=600v
+ Igt=100ma
+ Ih=80ma
+ Rt=0.010
+ Standard=1
* 1999 / ST / Rev 0
.ends

.subckt BTA40-800B A K G
X1 A K G Triac_ST params:
+ Vdrm=800v
+ Igt=100ma
+ Ih=80ma
+ Rt=0.010
+ Standard=1
* 1999 / ST / Rev 0
.ends

.subckt BTA41-600B A K G
X1 A K G Triac_ST params:
+ Vdrm=600v
+ Igt=100ma
+ Ih=80ma
+ Rt=0.01
+ Standard=1
* 1999 / ST / Rev 0
.ends

.subckt BTA41-800B A K G
X1 A K G Triac_ST params:
+ Vdrm=800v
+ Igt=100ma
+ Ih=80ma
+ Rt=0.01
+ Standard=1
* 1999 / ST / Rev 0
.ends

.subckt BTB41-600B A K G
X1 A K G Triac_ST params:
+ Vdrm=600v
+ Igt=100ma
+ Ih=80ma
+ Rt=0.01
+ Standard=1
* 1999 / ST / Rev 0
.ends

.subckt BTB41-800B A K G
X1 A K G Triac_ST params:
+ Vdrm=800v
+ Igt=100ma
+ Ih=80ma
+ Rt=0.01
+ Standard=1
* 1999 / ST / Rev 0
.ends

.subckt T850-8G A K G
X1 A K G Triac_ST params:
+ Vdrm=800v
+ Igt=50ma
+ Ih=75ma
+ Rt=0.05
+ Standard=0
* 2019 / ST / Rev 0
.ends

.subckt T850-6G A K G
X1 A K G Triac_ST params:
+ Vdrm=600v
+ Igt=50ma
+ Ih=75ma
+ Rt=0.05
+ Standard=0
* 2019 / ST / Rev 0
.ends

.subckt T835-8G A K G
X1 A K G Triac_ST params:
+ Vdrm=800v
+ Igt=35ma
+ Ih=35ma
+ Rt=0.05
+ Standard=0
* 2019 / ST / Rev 0
.ends

.subckt T4050-6PF A K G
X1 A K G Triac_ST params:
+ Vdrm=600v
+ Igt=50ma
+ Ih=85ma
+ Rt=0.01
+ Standard=0
* 2019 / ST / Rev 0
.ends

.subckt T1210-6G A K G
X1 A K G Triac_ST params:
+ Vdrm=600v
+ Igt=10ma
+ Ih=15ma
+ Rt=0.035
+ Standard=0
* 2019 / ST / Rev 0
.ends

.subckt T1050-8G A K G
X1 A K G Triac_ST params:
+ Vdrm=800v
+ Igt=50ma
+ Ih=50ma
+ Rt=0.04
+ Standard=0
* 2019 / ST / Rev 0
.ends

.subckt T1035-6G A K G
X1 A K G Triac_ST params:
+ Vdrm=600v
+ Igt=35ma
+ Ih=35ma
+ Rt=0.04
+ Standard=0
* 2019 / ST / Rev 0
.ends

.subckt T405-600 A K G
X1 A K G Triac_ST params:
+ Vdrm=600v
+ Igt=5ma
+ Ih=10ma
+ Rt=0.12
+ Standard=0
* 2008 / ST / Rev 1
.ends

.subckt T405-800 A K G
X1 A K G Triac_ST params:
+ Vdrm=800v
+ Igt=5ma
+ Ih=10ma
+ Rt=0.12
+ Standard=0
* 2008 / ST / Rev 0
.ends

.subckt T410-600 A K G
X1 A K G Triac_ST params:
+ Vdrm=600v
+ Igt=10ma
+ Ih=15ma
+ Rt=0.12
+ Standard=0
* 2008 / ST / Rev 1
.ends

.subckt T410-800 A K G
X1 A K G Triac_ST params:
+ Vdrm=800v
+ Igt=10ma
+ Ih=15ma
+ Rt=0.12
+ Standard=0
* 2008 / ST / Rev 1
.ends

.subckt T435-600 A K G
X1 A K G Triac_ST params:
+ Vdrm=600v
+ Igt=35ma
+ Ih=35ma
+ Rt=0.12
+ Standard=0
* 2008 / ST / Rev 1
.ends

.subckt T435-800 A K G
X1 A K G Triac_ST params:
+ Vdrm=800v
+ Igt=35ma
+ Ih=35ma
+ Rt=0.12
+ Standard=0
* 2008 / ST / Rev 1
.ends

.subckt BTA06-600TW A K G
X1 A K G Triac_ST params:
+ Vdrm=600v
+ Igt=5ma
+ Ih=10ma
+ Rt=0.06
+ Standard=0
* 2008 / ST / Rev 1
.ends

.subckt BTB06-600TW A K G
X1 A K G Triac_ST params:
+ Vdrm=600v
+ Igt=5ma
+ Ih=10ma
+ Rt=0.06
+ Standard=0
* 2008 / ST / Rev 1
.ends

.subckt BTA06-600SW A K G
X1 A K G Triac_ST params:
+ Vdrm=600v
+ Igt=10ma
+ Ih=15ma
+ Rt=0.06
+ Standard=0
* 2008 / ST / Rev 1
.ends

.subckt BTB06-600SW A K G
X1 A K G Triac_ST params:
+ Vdrm=600v
+ Igt=10ma
+ Ih=15ma
+ Rt=0.06
+ Standard=0
* 2008 / ST / Rev 1
.ends

.subckt BTA06-600CW A K G
X1 A K G Triac_ST params:
+ Vdrm=600v
+ Igt=35ma
+ Ih=35ma
+ Rt=0.06
+ Standard=0
* 2008 / ST / Rev 1
.ends

.subckt BTA06-800TW A K G
X1 A K G Triac_ST params:
+ Vdrm=800v
+ Igt=5ma
+ Ih=10ma
+ Rt=0.06
+ Standard=0
* 2010 / ST / Rev 0
.ends

.subckt BTB06-600CW A K G
X1 A K G Triac_ST params:
+ Vdrm=600v
+ Igt=35ma
+ Ih=35ma
+ Rt=0.06
+ Standard=0
* 2008 / ST / Rev 1
.ends

.subckt BTA06-600BW A K G
X1 A K G Triac_ST params:
+ Vdrm=600v
+ Igt=50ma
+ Ih=50ma
+ Rt=0.06
+ Standard=0
* 2008 / ST / Rev 1
.ends

.subckt BTA06-800BW A K G
X1 A K G Triac_ST params:
+ Vdrm=800v
+ Igt=50ma
+ Ih=50ma
+ Rt=0.06
+ Standard=0
* 2008 / ST / Rev 1
.ends

.subckt BTB06-600BW A K G
X1 A K G Triac_ST params:
+ Vdrm=600v
+ Igt=50ma
+ Ih=50ma
+ Rt=0.06
+ Standard=0
* 2008 / ST / Rev 1
.ends

.subckt T630-800 A K G
X1 A K G Triac_ST params:
+ Vdrm=800v
+ Igt=30ma
+ Ih=50ma
+ Rt=0.05
+ Standard=0
* 2010 / ST / Rev 0
.ends

.subckt BTA08-600TW A K G
X1 A K G Triac_ST params:
+ Vdrm=600v
+ Igt=5ma
+ Ih=10ma
+ Rt=0.05
+ Standard=0
* 2008 / ST / Rev 1
.ends

.subckt BTB08-600TW A K G
X1 A K G Triac_ST params:
+ Vdrm=600v
+ Igt=5ma
+ Ih=10ma
+ Rt=0.05
+ Standard=0
* 2008 / ST / Rev 1
.ends

.subckt BTB08-800TW A K G
X1 A K G Triac_ST params:
+ Vdrm=800v
+ Igt=5ma
+ Ih=10ma
+ Rt=0.05
+ Standard=0
* 2008 / ST / Rev 0
.ends

.subckt BTA08-600SW A K G
X1 A K G Triac_ST params:
+ Vdrm=600v
+ Igt=10ma
+ Ih=15ma
+ Rt=0.05
+ Standard=0
* 2008 / ST / Rev 1
.ends

.subckt BTB08-600SW A K G
X1 A K G Triac_ST params:
+ Vdrm=600v
+ Igt=10ma
+ Ih=15ma
+ Rt=0.05
+ Standard=0
* 2008 / ST / Rev 1
.ends

.subckt BTA08-600CW A K G
X1 A K G Triac_ST params:
+ Vdrm=600v
+ Igt=35ma
+ Ih=35ma
+ Rt=0.056
+ Standard=0
* 1999 / ST / Rev 0
.ends

.subckt BTB08-600CW A K G
X1 A K G Triac_ST params:
+ Vdrm=600v
+ Igt=35ma
+ Ih=35ma
+ Rt=0.05
+ Standard=0
* 2008 / ST / Rev 1
.ends

.subckt BTA08-600BW A K G
X1 A K G Triac_ST params:
+ Vdrm=600v
+ Igt=50ma
+ Ih=50ma
+ Rt=0.05
+ Standard=0
* 2008 / ST / Rev 1
.ends

.subckt BTA08-800BW A K G
X1 A K G Triac_ST params:
+ Vdrm=800v
+ Igt=50ma
+ Ih=50ma
+ Rt=0.05
+ Standard=0
* 2008 / ST / Rev 1
.ends

.subckt BTB08-600BW A K G
X1 A K G Triac_ST params:
+ Vdrm=600v
+ Igt=50ma
+ Ih=50ma
+ Rt=0.05
+ Standard=0
* 2008 / ST / Rev 1
.ends

.subckt T810-600 A K G
X1 A K G Triac_ST params:
+ Vdrm=600v
+ Igt=10ma
+ Ih=15ma
+ Rt=0.05
+ Standard=0
* 2008 / ST / Rev 0
.ends

.subckt T810-800 A K G
X1 A K G Triac_ST params:
+ Vdrm=800v
+ Igt=10ma
+ Ih=15ma
+ Rt=0.05
+ Standard=0
* 2008 / ST / Rev 0
.ends

.subckt T835-600 A K G
X1 A K G Triac_ST params:
+ Vdrm=600v
+ Igt=35ma
+ Ih=35ma
+ Rt=0.05
+ Standard=0
* 2008 / ST / Rev 0
.ends

.subckt T835-800 A K G
X1 A K G Triac_ST params:
+ Vdrm=800v
+ Igt=35ma
+ Ih=35ma
+ Rt=0.05
+ Standard=0
* 2008 / ST / Rev 0
.ends

.subckt BTA10-600CW A K G
X1 A K G Triac_ST params:
+ Vdrm=600v
+ Igt=35ma
+ Ih=35ma
+ Rt=0.04
+ Standard=0
* 2008 / ST / Rev 1
.ends

.subckt BTA10-800CW A K G
X1 A K G Triac_ST params:
+ Vdrm=800v
+ Igt=35ma
+ Ih=35ma
+ Rt=0.04
+ Standard=0
* 2008 / ST / Rev 1
.ends

.subckt BTA10-600BW A K G
X1 A K G Triac_ST params:
+ Vdrm=600v
+ Igt=50ma
+ Ih=50ma
+ Rt=0.04
+ Standard=0
* 2008 / ST / Rev 1
.ends

.subckt BTA10-800BW A K G
X1 A K G Triac_ST params:
+ Vdrm=800v
+ Igt=50ma
+ Ih=50ma
+ Rt=0.04
+ Standard=0
* 2008 / ST / Rev 1
.ends

.subckt BTB10-600BW A K G
X1 A K G Triac_ST params:
+ Vdrm=600v
+ Igt=50ma
+ Ih=50ma
+ Rt=0.04
+ Standard=0
* 2008 / ST / Rev 1
.ends

.subckt BTB10-800BW A K G
X1 A K G Triac_ST params:
+ Vdrm=800v
+ Igt=50ma
+ Ih=50ma
+ Rt=0.04
+ Standard=0
* 2008 / ST / Rev 1
.ends

.subckt BTA12-600TW A K G
X1 A K G Triac_ST params:
+ Vdrm=600v
+ Igt=5ma
+ Ih=10ma
+ Rt=0.035
+ Standard=0
* 2008 / ST / Rev 0
.ends

.subckt BTA12-600SW A K G
X1 A K G Triac_ST params:
+ Vdrm=600v
+ Igt=10ma
+ Ih=15ma
+ Rt=0.035
+ Standard=0
* 2008 / ST / Rev 1
.ends

.subckt BTB12-600SW A K G
X1 A K G Triac_ST params:
+ Vdrm=600v
+ Igt=10ma
+ Ih=15ma
+ Rt=0.035
+ Standard=0
* 2008 / ST / Rev 1
.ends

.subckt BTA12-600CW A K G
X1 A K G Triac_ST params:
+ Vdrm=600v
+ Igt=35ma
+ Ih=35ma
+ Rt=0.035
+ Standard=0
* 2008 / ST / Rev 1
.ends

.subckt BTA12-800SW A K G
X1 A K G Triac_ST params:
+ Vdrm=800v
+ Igt=10ma
+ Ih=15ma
+ Rt=0.035
+ Standard=0
* 2008 / ST / Rev 0
.ends

.subckt BTA12-800CW A K G
X1 A K G Triac_ST params:
+ Vdrm=800v
+ Igt=35ma
+ Ih=35ma
+ Rt=0.035
+ Standard=0
* 2008 / ST / Rev 1
.ends

.subckt BTB12-600CW A K G
X1 A K G Triac_ST params:
+ Vdrm=600v
+ Igt=35ma
+ Ih=35ma
+ Rt=0.035
+ Standard=0
* 2008 / ST / Rev 1
.ends

.subckt BTB12-800CW A K G
X1 A K G Triac_ST params:
+ Vdrm=800v
+ Igt=35ma
+ Ih=35ma
+ Rt=0.035
+ Standard=0
* 2008 / ST / Rev 1
.ends

.subckt BTA12-600BW A K G
X1 A K G Triac_ST params:
+ Vdrm=600v
+ Igt=50ma
+ Ih=50ma
+ Rt=0.035
+ Standard=0
* 2008 / ST / Rev 1
.ends

.subckt BTA12-800BW A K G
X1 A K G Triac_ST params:
+ Vdrm=800v
+ Igt=50ma
+ Ih=50ma
+ Rt=0.035
+ Standard=0
* 2008 / ST / Rev 1
.ends

.subckt BTB12-600BW A K G
X1 A K G Triac_ST params:
+ Vdrm=600v
+ Igt=50ma
+ Ih=50ma
+ Rt=0.035
+ Standard=0
* 2008 / ST / Rev 1
.ends

.subckt T1210-800 A K G
X1 A K G Triac_ST params:
+ Vdrm=800v
+ Igt=10ma
+ Ih=15ma
+ Rt=0.035
+ Standard=0
* 2008 / ST / Rev 0
.ends

.subckt T1235-600 A K G
X1 A K G Triac_ST params:
+ Vdrm=600v
+ Igt=35ma
+ Ih=35ma
+ Rt=0.035
+ Standard=0
* 2008 / ST / Rev 0
.ends

.subckt T1235-800 A K G
X1 A K G Triac_ST params:
+ Vdrm=800v
+ Igt=35ma
+ Ih=35ma
+ Rt=0.035
+ Standard=0
* 2008 / ST / Rev 0
.ends

.subckt BTA16-600CW A K G
X1 A K G Triac_ST params:
+ Vdrm=600v
+ Igt=35ma
+ Ih=35ma
+ Rt=0.025
+ Standard=0
* 2008 / ST / Rev 1
.ends

.subckt BTA16-800CW A K G
X1 A K G Triac_ST params:
+ Vdrm=800v
+ Igt=35ma
+ Ih=35ma
+ Rt=0.025
+ Standard=0
* 2008 / ST / Rev 1
.ends

.subckt BTB16-600CW A K G
X1 A K G Triac_ST params:
+ Vdrm=600v
+ Igt=35ma
+ Ih=35ma
+ Rt=0.025
+ Standard=0
* 2008 / ST / Rev 1
.ends

.subckt BTB16-800CW A K G
X1 A K G Triac_ST params:
+ Vdrm=800v
+ Igt=35ma
+ Ih=35ma
+ Rt=0.025
+ Standard=0
* 2008 / ST / Rev 1
.ends

.subckt BTA16-600BW A K G
X1 A K G Triac_ST params:
+ Vdrm=600v
+ Igt=50ma
+ Ih=50ma
+ Rt=0.025
+ Standard=0
* 2008 / ST / Rev 1
.ends

.subckt BTA16-800BW A K G
X1 A K G Triac_ST params:
+ Vdrm=800v
+ Igt=50ma
+ Ih=50ma
+ Rt=0.025
+ Standard=0
* 2008 / ST / Rev 1
.ends

.subckt BTB16-600BW A K G
X1 A K G Triac_ST params:
+ Vdrm=600v
+ Igt=50ma
+ Ih=50ma
+ Rt=0.025
+ Standard=0
* 2008 / ST / Rev 1
.ends

.subckt BTB16-800BW A K G
X1 A K G Triac_ST params:
+ Vdrm=800v
+ Igt=50ma
+ Ih=50ma
+ Rt=0.025
+ Standard=0
* 2008 / ST / Rev 1
.ends

.subckt BTA16-600SW A K G
X1 A K G Triac_ST params:
+ Vdrm=600v
+ Igt=10ma
+ Ih=15ma
+ Rt=0.025
+ Standard=0
* 1999 / ST / Rev 0
.ends

.subckt BTB16-600SW A K G
X1 A K G Triac_ST params:
+ Vdrm=600v
+ Igt=10ma
+ Ih=15ma
+ Rt=0.025
+ Standard=0
* 1999 / ST / Rev 0
.ends

.subckt BTB16-800SW A K G
X1 A K G Triac_ST params:
+ Vdrm=800v
+ Igt=10ma
+ Ih=15ma
+ Rt=0.025
+ Standard=0
* 2008 / ST / Rev 0
.ends

.subckt T1610-800 A K G
X1 A K G Triac_ST params:
+ Vdrm=800v
+ Igt=10ma
+ Ih=15ma
+ Rt=0.025
+ Standard=0
* 2010 / ST / Rev 0
.ends

.subckt T1610-600 A K G
X1 A K G Triac_ST params:
+ Vdrm=600v
+ Igt=10ma
+ Ih=15ma
+ Rt=0.025
+ Standard=0
* 2010 / ST / Rev 0
.ends

.subckt T1620-600W A K G
X1 A K G Triac_ST params:
+ Vdrm=600v
+ Igt=20ma
+ Ih=35ma
+ Rt=0.02
+ Standard=0
* 2008 / ST / Rev 1
.ends

.subckt T1635-600 A K G
X1 A K G Triac_ST params:
+ Vdrm=600v
+ Igt=35ma
+ Ih=35ma
+ Rt=0.025
+ Standard=0
* 2008 / ST / Rev 0
.ends

.subckt BTA20-600CW A K G
X1 A K G Triac_ST params:
+ Vdrm=600v
+ Igt=35ma
+ Ih=50ma
+ Rt=0.02
+ Standard=0
* 1999 / ST / Rev 0
.ends

.subckt BTA24-600CW A K G
X1 A K G Triac_ST params:
+ Vdrm=600v
+ Igt=35ma
+ Ih=50ma
+ Rt=0.016
+ Standard=0
* 1999 / ST / Rev 0
.ends

.subckt BTA24-800CW A K G
X1 A K G Triac_ST params:
+ Vdrm=800v
+ Igt=35ma
+ Ih=50ma
+ Rt=0.016
+ Standard=0
* 1999 / ST / Rev 0
.ends

.subckt BTB24-600CW A K G
X1 A K G Triac_ST params:
+ Vdrm=600v
+ Igt=35ma
+ Ih=50ma
+ Rt=0.016
+ Standard=0
* 1999 / ST / Rev 0
.ends

.subckt BTB24-800CW A K G
X1 A K G Triac_ST params:
+ Vdrm=800v
+ Igt=35ma
+ Ih=50ma
+ Rt=0.016
+ Standard=0
* 1999 / ST / Rev 0
.ends

.subckt BTA24-600BW A K G
X1 A K G Triac_ST params:
+ Vdrm=600v
+ Igt=50ma
+ Ih=75ma
+ Rt=0.016
+ Standard=0
* 1999 / ST / Rev 0
.ends

.subckt BTA24-800BW A K G
X1 A K G Triac_ST params:
+ Vdrm=800v
+ Igt=50ma
+ Ih=75ma
+ Rt=0.016
+ Standard=0
* 1999 / ST / Rev 0
.ends

.subckt BTB24-600BW A K G
X1 A K G Triac_ST params:
+ Vdrm=600v
+ Igt=50ma
+ Ih=75ma
+ Rt=0.016
+ Standard=0
* 1999 / ST / Rev 0
.ends

.subckt BTB24-800BW A K G
X1 A K G Triac_ST params:
+ Vdrm=800v
+ Igt=50ma
+ Ih=75ma
+ Rt=0.016
+ Standard=0
* 1999 / ST / Rev 0
.ends

.subckt BTA25-600BW A K G
X1 A K G Triac_ST params:
+ Vdrm=600v
+ Igt=50ma
+ Ih=75ma
+ Rt=0.016
+ Standard=0
* 2008 / ST / Rev 0
.ends

.subckt BTA25-800BW A K G
X1 A K G Triac_ST params:
+ Vdrm=800v
+ Igt=50ma
+ Ih=75ma
+ Rt=0.016
+ Standard=0
* 2008 / ST / Rev 0
.ends

.subckt T2535-600 A K G
X1 A K G Triac_ST params:
+ Vdrm=600v
+ Igt=35ma
+ Ih=50ma
+ Rt=0.016
+ Standard=0
* 2008 / ST / Rev 0
.ends

.subckt T2535-800 A K G
X1 A K G Triac_ST params:
+ Vdrm=800v
+ Igt=35ma
+ Ih=50ma
+ Rt=0.016
+ Standard=0
* 2008 / ST / Rev 0
.ends

.subckt BTA26-800CW A K G
X1 A K G Triac_ST params:
+ Vdrm=800v
+ Igt=35ma
+ Ih=50ma
+ Rt=0.016
+ Standard=0
* 1999 / ST / Rev 0
.ends

.subckt BTA26-600BW A K G
X1 A K G Triac_ST params:
+ Vdrm=600v
+ Igt=50ma
+ Ih=75ma
+ Rt=0.016
+ Standard=0
* 1999 / ST / Rev 0
.ends

.subckt BTA26-800BW A K G
X1 A K G Triac_ST params:
+ Vdrm=800v
+ Igt=50ma
+ Ih=75ma
+ Rt=0.016
+ Standard=0
* 1999 / ST / Rev 0
.ends

.subckt T2550-12 A K G
X1 A K G Triac_ST params:
+ Vdrm=1200v
+ Igt=50ma
+ Ih=60ma
+ Rt=0.02
+ Standard=0
* 2014 / ST / Rev 0
.ends

.subckt TXDV812 A K G
X1 A K G Triac_ST params:
+ Vdrm=800v
+ Igt=100ma
+ Ih=100ma
+ Rt=0.04
+ Standard=0
* 2011 / ST / Rev 0
.ends

.subckt TXDV1212 A K G
X1 A K G Triac_ST params:
+ Vdrm=1200v
+ Igt=100ma
+ Ih=100ma
+ Rt=0.04
+ Standard=0
* 2011 / ST / Rev 0
.ends

.subckt TPDV640 A K G
X1 A K G Triac_ST params:
+ Vdrm=600v
+ Igt=200ma
+ Ih=50ma
+ Rt=0.012
+ Standard=0
* 2011 / ST / Rev 0
.ends

.subckt TPDV840 A K G
X1 A K G Triac_ST params:
+ Vdrm=800v
+ Igt=200ma
+ Ih=50ma
+ Rt=0.012
+ Standard=0
* 2011 / ST / Rev 0
.ends

.subckt TPDV1240 A K G
X1 A K G Triac_ST params:
+ Vdrm=1200v
+ Igt=200ma
+ Ih=50ma
+ Rt=0.012
+ Standard=0
* 2011 / ST / Rev 0
.ends

.subckt TPDV825 A K G
X1 A K G Triac_ST params:
+ Vdrm=800v
+ Igt=150ma
+ Ih=50ma
+ Rt=0.019
+ Standard=0
* 2011 / ST / Rev 0
.ends

.subckt TPDV1025 A K G
X1 A K G Triac_ST params:
+ Vdrm=1000v
+ Igt=150ma
+ Ih=50ma
+ Rt=0.019
+ Standard=0
* 2011 / ST / Rev 0
.ends

.subckt TPDV1225 A K G
X1 A K G Triac_ST params:
+ Vdrm=1200v
+ Igt=150ma
+ Ih=50ma
+ Rt=0.019
+ Standard=0
* 2011 / ST / Rev 0
.ends

.subckt BT136-600E A K G
X1 A K G Triac_ST params:
+ Vdrm=600v
+ Igt=10ma
+ Ih=15ma
+ Rt=0.06
+ Standard=1
* 2020 / GLuisF / Rev 1
.ends

.subckt Z0103D A K G
X1 A K G Triac_ST params:
+ Vdrm=400v     
+ Igt=5ma
+ Ih=7ma        
+ Rt=0.42
+ Standard=1
* 1999 / ST / Rev 0
.ends

.subckt Z0103S A K G
X1 A K G Triac_ST params:
+ Vdrm=700v     
+ Igt=5ma
+ Ih=7ma        
+ Rt=0.42
+ Standard=1
* 1999 / ST / Rev 0
.ends

.subckt Z0107D A K G
X1 A K G Triac_ST params:
+ Vdrm=400v     
+ Igt=7ma
+ Ih=10ma        
+ Rt=0.42
+ Standard=1
* 1999 / ST / Rev 0
.ends

.subckt Z0107S A K G
X1 A K G Triac_ST params:
+ Vdrm=700v     
+ Igt=7ma
+ Ih=10ma        
+ Rt=0.42
+ Standard=1
* 1999 / ST / Rev 0
.ends

.subckt Z0109D A K G
X1 A K G Triac_ST params:
+ Vdrm=400v     
+ Igt=10ma
+ Ih=10ma        
+ Rt=0.42
+ Standard=1
* 1999 / ST / Rev 0
.ends

.subckt Z0109S A K G
X1 A K G Triac_ST params:
+ Vdrm=700v     
+ Igt=10ma
+ Ih=10ma        
+ Rt=0.42
+ Standard=1
* 1999 / ST / Rev 0
.ends

.subckt Z0110D A K G
X1 A K G Triac_ST params:
+ Vdrm=400v     
+ Igt=25ma
+ Ih=25ma        
+ Rt=0.42
+ Standard=1
* 1999 / ST / Rev 0
.ends

.subckt Z0110S A K G
X1 A K G Triac_ST params:
+ Vdrm=700v     
+ Igt=25ma
+ Ih=25ma        
+ Rt=0.42
+ Standard=1
* 1999 / ST / Rev 0
.ends

.subckt Z0110N A K G
X1 A K G Triac_ST params:
+ Vdrm=800v     
+ Igt=25ma
+ Ih=25ma        
+ Rt=0.42
+ Standard=1
* 1999 / ST / Rev 0
.ends

.subckt Z0402D A K G
X1 A K G Triac_ST params:
+ Vdrm=400v     
+ Igt=3ma
+ Ih=3ma        
+ Rt=0.18
+ Standard=1
* 1999 / ST / Rev 0
.ends

.subckt Z0402N A K G
X1 A K G Triac_ST params:
+ Vdrm=800v     
+ Igt=3ma
+ Ih=3ma        
+ Rt=0.18
+ Standard=1
* 1999 / ST / Rev 0
.ends

.subckt Z0405D A K G
X1 A K G Triac_ST params:
+ Vdrm=400v     
+ Igt=5ma
+ Ih=5ma        
+ Rt=0.18
+ Standard=1
* 1999 / ST / Rev 0
.ends

.subckt Z0409D A K G
X1 A K G Triac_ST params:
+ Vdrm=400v     
+ Igt=10ma
+ Ih=10ma        
+ Rt=0.18
+ Standard=1
* 1999 / ST / Rev 0
.ends

.subckt Z0410D A K G
X1 A K G Triac_ST params:
+ Vdrm=400v     
+ Igt=25ma
+ Ih=25ma        
+ Rt=0.18
+ Standard=1
* 1999 / ST / Rev 0
.ends

.subckt BTA06-400C A K G
X1 A K G Triac_ST params:
+ Vdrm=400v     
+ Igt=50ma
+ Ih=25ma        
+ Rt=0.065
+ Standard=1
* 1999 / ST / Rev 0
.ends

.subckt BTA06-700C A K G
X1 A K G Triac_ST params:
+ Vdrm=700v     
+ Igt=50ma
+ Ih=25ma        
+ Rt=0.065
+ Standard=1
* 1999 / ST / Rev 0
.ends

.subckt BTB06-400C A K G
X1 A K G Triac_ST params:
+ Vdrm=400v     
+ Igt=50ma
+ Ih=25ma        
+ Rt=0.065
+ Standard=1
* 1999 / ST / Rev 0
.ends

.subckt BTB06-700C A K G
X1 A K G Triac_ST params:
+ Vdrm=700v     
+ Igt=50ma
+ Ih=25ma        
+ Rt=0.065
+ Standard=1
* 1999 / ST / Rev 0
.ends

.subckt BTB06-800C A K G
X1 A K G Triac_ST params:
+ Vdrm=800v     
+ Igt=50ma
+ Ih=25ma        
+ Rt=0.065
+ Standard=1
* 1999 / ST / Rev 0
.ends

.subckt BTA06-400B A K G
X1 A K G Triac_ST params:
+ Vdrm=400v     
+ Igt=100ma
+ Ih=50ma        
+ Rt=0.065
+ Standard=1
* 1999 / ST / Rev 0
.ends

.subckt BTA06-700B A K G
X1 A K G Triac_ST params:
+ Vdrm=700v     
+ Igt=100ma
+ Ih=50ma        
+ Rt=0.065
+ Standard=1
* 1999 / ST / Rev 0
.ends

.subckt BTA06-800B A K G
X1 A K G Triac_ST params:
+ Vdrm=800v     
+ Igt=100ma
+ Ih=50ma        
+ Rt=0.065
+ Standard=1
* 1999 / ST / Rev 0
.ends

.subckt BTB06-400B A K G
X1 A K G Triac_ST params:
+ Vdrm=400v     
+ Igt=100ma
+ Ih=50ma        
+ Rt=0.065
+ Standard=1
* 1999 / ST / Rev 0
.ends

.subckt BTB06-700B A K G
X1 A K G Triac_ST params:
+ Vdrm=700v     
+ Igt=100ma
+ Ih=50ma        
+ Rt=0.065
+ Standard=1
* 1999 / ST / Rev 0
.ends

.subckt BTB06-800B A K G
X1 A K G Triac_ST params:
+ Vdrm=800v     
+ Igt=100ma
+ Ih=50ma        
+ Rt=0.065
+ Standard=1
* 1999 / ST / Rev 0
.ends

.subckt BTA08-400C A K G
X1 A K G Triac_ST params:
+ Vdrm=400v     
+ Igt=50ma
+ Ih=25ma        
+ Rt=0.065
+ Standard=1
* 1999 / ST / Rev 0
.ends

.subckt BTA08-700C A K G
X1 A K G Triac_ST params:
+ Vdrm=700v     
+ Igt=50ma
+ Ih=25ma        
+ Rt=0.065
+ Standard=1
* 1999 / ST / Rev 0
.ends

.subckt BTB08-400C A K G
X1 A K G Triac_ST params: