Version 4
SHEET 1 880 680
WIRE 320 64 272 64
WIRE 448 64 400 64
WIRE 384 160 384 144
WIRE 272 176 272 64
WIRE 352 176 272 176
WIRE 448 192 448 64
WIRE 448 192 416 192
WIRE 592 192 448 192
WIRE 352 208 64 208
WIRE -80 240 -80 208
WIRE 64 240 64 208
WIRE 272 240 272 176
WIRE 384 240 384 224
WIRE -80 352 -80 320
WIRE 64 352 64 320
WIRE 272 352 272 320
FLAG 384 240 0
FLAG -80 352 0
FLAG 592 192 out
FLAG 384 144 V+
FLAG -80 208 V+
FLAG 64 352 0
FLAG 272 352 0
SYMBOL voltage -80 224 R0
WINDOW 123 24 124 Left 2
WINDOW 39 0 0 Left 2
SYMATTR Value2 AC 2
SYMATTR InstName V1
SYMATTR Value 5
SYMBOL voltage 64 224 R0
WINDOW 123 24 124 Left 2
WINDOW 39 0 0 Left 2
SYMATTR Value2 AC 1
SYMATTR InstName V2
SYMATTR Value 2.5
SYMBOL res 256 224 R0
SYMATTR InstName R1
SYMATTR Value 10k
SYMBOL res 304 80 R270
WINDOW 0 32 56 VTop 2
WINDOW 3 0 56 VBottom 2
SYMATTR InstName R2
SYMATTR Value 100 ac=1T
SYMBOL Robertugo\\opamp5 384 128 R0
SYMATTR InstName U1
SYMATTR SpiceModel MCP6L01
TEXT -488 64 Left 2 ;.tran 0 1ms 0 10u uic
TEXT -488 136 Left 2 ;.options gmin=1e-10\n.options abstol=1e-10\n.options reltol=0.003
TEXT -488 232 Left 2 ;.options cshunt=1e-15
TEXT -488 296 Left 2 ;.nodeset V(out)=2.5
TEXT -488 264 Left 2 ;.options method=gear
TEXT -488 24 Left 2 !.ac dec 100 1 10meg
TEXT -488 352 Left 2 ;.options itl1=200 itl2=200
TEXT -496 400 Left 2 ;.options gshunt=1e-10
