Version 4
SHEET 1 3656 680
WIRE -1280 -992 -1280 -1056
WIRE -1008 -992 -1008 -1056
WIRE -1200 -944 -1200 -1056
WIRE -928 -944 -928 -1056
WIRE -1280 -816 -1280 -912
WIRE -1200 -816 -1200 -864
WIRE -1008 -816 -1008 -912
WIRE -928 -816 -928 -864
WIRE -592 -768 -640 -768
WIRE -480 -768 -480 -816
WIRE -480 -768 -512 -768
WIRE -448 -768 -480 -768
WIRE -336 -768 -368 -768
WIRE -176 -768 -192 -768
WIRE -80 -768 -96 -768
WIRE -64 -768 -80 -768
WIRE 144 -768 96 -768
WIRE 256 -768 256 -816
WIRE 256 -768 224 -768
WIRE 288 -768 256 -768
WIRE 400 -768 368 -768
WIRE -1280 -736 -1280 -816
WIRE -1232 -736 -1280 -736
WIRE -1008 -736 -1008 -816
WIRE -960 -736 -1008 -736
WIRE -1232 -688 -1232 -736
WIRE -1200 -688 -1200 -816
WIRE -960 -688 -960 -736
WIRE -928 -688 -928 -816
WIRE -1280 -656 -1360 -656
WIRE -1248 -656 -1280 -656
WIRE -1152 -656 -1184 -656
WIRE -1008 -656 -1088 -656
WIRE -976 -656 -1008 -656
WIRE -880 -656 -912 -656
WIRE -160 -640 -192 -640
WIRE -80 -640 -80 -768
WIRE -80 -640 -96 -640
WIRE -1360 -624 -1360 -656
WIRE -1088 -624 -1088 -656
WIRE -1280 -608 -1280 -656
WIRE -1008 -608 -1008 -656
WIRE -1216 -528 -1216 -624
WIRE -1216 -528 -1280 -528
WIRE -944 -528 -944 -624
WIRE -944 -528 -1008 -528
WIRE 736 -464 736 -496
WIRE 944 -464 736 -464
WIRE 736 -448 736 -464
WIRE 832 -448 736 -448
WIRE 736 -432 736 -448
WIRE 832 -384 832 -448
WIRE -944 -352 -944 -528
WIRE 944 -352 944 -464
WIRE -1216 -336 -1216 -528
WIRE 736 -336 736 -368
WIRE 624 -288 576 -288
WIRE 672 -288 624 -288
WIRE -1232 -256 -1232 -272
WIRE -1120 -256 -1232 -256
WIRE 576 -256 576 -288
WIRE 624 -256 624 -288
WIRE 672 -256 672 -288
WIRE 688 -256 672 -256
WIRE -960 -224 -960 -288
WIRE -816 -224 -960 -224
WIRE -352 -208 -352 -240
WIRE -288 -208 -352 -208
WIRE -96 -208 -224 -208
WIRE 112 -208 112 -224
WIRE 112 -208 80 -208
WIRE 448 -208 112 -208
WIRE 736 -208 736 -240
WIRE 832 -208 832 -320
WIRE 832 -208 736 -208
WIRE 80 -160 80 -208
WIRE 96 -160 80 -160
WIRE 576 -160 576 -192
WIRE 576 -160 304 -160
WIRE 624 -160 624 -176
WIRE 624 -160 576 -160
WIRE 80 -144 80 -160
WIRE 336 -128 304 -128
WIRE 416 -128 336 -128
WIRE -352 -112 -352 -208
WIRE -304 -112 -352 -112
WIRE -272 -112 -304 -112
WIRE -96 -112 -96 -208
WIRE -96 -112 -144 -112
WIRE 736 -112 736 -208
WIRE 992 -112 736 -112
WIRE 1104 -112 1072 -112
WIRE 1120 -112 1104 -112
WIRE 1232 -112 1200 -112
WIRE 1280 -112 1232 -112
WIRE 1360 -112 1280 -112
WIRE 1104 -80 1104 -112
WIRE 1232 -80 1232 -112
WIRE -1120 -64 -1120 -256
WIRE -1120 -64 -1296 -64
WIRE -816 -64 -816 -224
WIRE -800 -64 -816 -64
WIRE -352 -64 -352 -112
WIRE 1360 -64 1360 -112
WIRE -272 -48 -480 -48
WIRE -96 -48 -144 -48
WIRE 96 -48 -32 -48
WIRE 336 -48 336 -64
WIRE 336 -48 304 -48
WIRE 736 -48 736 -112
WIRE 736 -48 688 -64
WIRE 736 -48 336 -48
WIRE 1280 -48 1280 -112
WIRE -96 -32 -96 -48
WIRE 96 0 0 0
WIRE 336 0 304 0
WIRE 416 0 416 -64
WIRE 416 0 336 0
WIRE 448 0 448 -208
WIRE 448 0 416 0
WIRE -1056 16 -1056 -16
WIRE -1040 16 -1056 16
WIRE -816 16 -816 -64
WIRE -816 16 -848 16
WIRE -304 16 -304 -112
WIRE -272 16 -304 16
WIRE -32 16 -32 -48
WIRE -32 16 -144 16
WIRE 1280 32 1280 16
WIRE 1312 32 1280 32
WIRE 1360 32 1360 16
WIRE 1360 32 1312 32
WIRE -480 48 -480 -48
WIRE -480 48 -528 48
WIRE -1120 64 -1120 -64
WIRE -1040 64 -1120 64
WIRE -624 64 -624 48
WIRE -624 64 -848 64
WIRE -592 64 -624 64
WIRE 736 64 736 -48
WIRE 816 64 736 64
WIRE -352 80 -352 0
WIRE -304 80 -352 80
WIRE -272 80 -304 80
WIRE 0 80 0 0
WIRE 0 80 -144 80
WIRE 80 80 80 -80
WIRE 96 80 80 80
WIRE 336 80 336 64
WIRE 336 80 304 80
WIRE 336 96 336 80
WIRE 736 96 736 64
WIRE 944 96 944 -288
WIRE 1120 96 944 96
WIRE 1136 96 1120 96
WIRE 1248 96 1216 96
WIRE 1312 96 1312 32
WIRE 1312 96 1248 96
WIRE -1344 112 -1408 112
WIRE -1296 112 -1344 112
WIRE -1280 112 -1296 112
WIRE -1040 112 -1200 112
WIRE -848 112 -784 96
WIRE -304 112 -304 80
WIRE 80 128 80 80
WIRE 96 128 80 128
WIRE 464 128 304 128
WIRE 576 128 464 128
WIRE 1120 128 1120 96
WIRE 1248 128 1248 96
WIRE -1296 144 -1296 112
WIRE -1344 160 -1344 112
WIRE -1136 160 -1184 160
WIRE -1040 160 -1056 160
WIRE -784 160 -848 160
WIRE 80 160 80 128
WIRE 816 160 816 64
WIRE 576 192 576 128
WIRE 624 192 576 192
WIRE -1040 208 -1120 208
WIRE -816 208 -848 208
WIRE 624 208 624 192
WIRE 576 224 576 192
WIRE -1344 240 -1344 224
WIRE -1296 240 -1296 224
WIRE -1296 240 -1344 240
WIRE -1344 256 -1344 240
WIRE -1136 256 -1152 256
WIRE -1040 256 -1056 256
WIRE -832 256 -848 256
WIRE -784 256 -832 256
WIRE 464 256 464 128
WIRE 736 256 736 160
WIRE 944 272 944 96
WIRE 576 304 576 288
WIRE 624 304 624 288
WIRE 624 304 576 304
WIRE 672 304 624 304
WIRE 672 336 672 304
WIRE 688 336 672 336
WIRE 736 368 736 352
WIRE 816 368 816 224
WIRE 816 368 736 368
WIRE -1408 384 -1408 112
WIRE -832 384 -832 256
WIRE -832 384 -1408 384
WIRE 736 384 736 368
WIRE 944 384 944 336
FLAG 736 384 0
FLAG -192 -640 0
FLAG 736 -496 310
IOPIN 736 -496 In
FLAG -192 -768 0
FLAG -64 -768 310
IOPIN -64 -768 Out
FLAG -480 -816 0
FLAG -336 -768 Vdd
IOPIN -336 -768 Out
FLAG -640 -768 -Vdd
IOPIN -640 -768 Out
FLAG 256 -816 0
FLAG 400 -768 Vcc
IOPIN 400 -768 Out
FLAG 96 -768 -Vcc
IOPIN 96 -768 Out
FLAG -96 -32 0
FLAG -304 112 0
FLAG -352 -240 Vdd
IOPIN -352 -240 In
FLAG 336 96 0
FLAG 112 -224 Vdd
IOPIN 112 -224 In
FLAG -1056 -16 Vcc
IOPIN -1056 -16 In
FLAG -1152 256 0
FLAG -1200 208 0
FLAG -1184 160 0
FLAG -1344 320 0
FLAG -624 48 vco
IOPIN -624 48 Out
FLAG -816 208 0
FLAG -880 -656 0
FLAG -1088 -624 Vcc
IOPIN -1088 -624 In
FLAG 688 -64 Float
FLAG -784 256 control
IOPIN -784 256 BiDir
FLAG 1232 -80 C2.1
IOPIN 1232 -80 Out
FLAG 1104 -80 C1.1
IOPIN 1104 -80 Out
FLAG -1152 -656 0
FLAG -1360 -624 Vcc
IOPIN -1360 -624 In
FLAG -1296 -64 sig
IOPIN -1296 -64 In
FLAG 80 160 0
FLAG 944 384 0
FLAG 1120 128 C1.2
IOPIN 1120 128 Out
FLAG 1248 128 C2.2
IOPIN 1248 128 Out
FLAG -928 -1056 C1.1
IOPIN -928 -1056 Out
FLAG -1008 -1056 C1.2
IOPIN -1008 -1056 Out
FLAG -1200 -1056 C2.1
IOPIN -1200 -1056 Out
FLAG -1280 -1056 C2.2
IOPIN -1280 -1056 Out
FLAG 464 256 Low-Fet
IOPIN 464 256 Out
FLAG -800 -64 OPOR
IOPIN -800 -64 Out
SYMBOL res 608 -272 R0
SYMATTR InstName R2
SYMATTR Value 3
SYMBOL res 608 192 R0
SYMATTR InstName R3
SYMATTR Value 3
SYMBOL cap 592 -256 M0
SYMATTR InstName C2
SYMATTR Value 4.7µ
SYMBOL cap 592 224 M0
SYMATTR InstName C3
SYMATTR Value 4.7µ
SYMBOL cap -96 -624 M270
WINDOW 0 32 32 VTop 0
WINDOW 3 0 32 VBottom 0
SYMATTR InstName C6
SYMATTR Value 1600µ
SYMBOL voltage -80 -768 R90
WINDOW 0 -32 56 VBottom 0
WINDOW 3 32 56 VTop 0
WINDOW 123 0 0 Left 0
WINDOW 39 -4 56 VBottom 0
SYMATTR InstName V1
SYMATTR Value 310
SYMBOL voltage -352 -768 R90
WINDOW 0 -32 56 VBottom 0
WINDOW 3 32 56 VTop 0
SYMATTR InstName V2
SYMATTR Value 12
SYMBOL ind 1216 -96 M270
WINDOW 0 32 56 VTop 0
WINDOW 3 4 56 VBottom 0
SYMATTR InstName L4
SYMATTR Value 0.05µ
SYMATTR SpiceLine Rser=5
SYMATTR Type ind2
SYMBOL voltage -496 -768 R90
WINDOW 0 -32 56 VBottom 0
WINDOW 3 32 56 VTop 0
SYMATTR InstName V3
SYMATTR Value 12
SYMBOL voltage 384 -768 R90
WINDOW 0 -32 56 VBottom 0
WINDOW 3 32 56 VTop 0
WINDOW 123 0 0 Left 0
WINDOW 39 0 0 Left 0
SYMATTR InstName V4
SYMATTR Value 5
SYMBOL voltage 240 -768 R90
WINDOW 0 -32 56 VBottom 0
WINDOW 3 32 56 VTop 0
WINDOW 123 0 0 Left 0
WINDOW 39 0 0 Left 0
SYMATTR InstName V5
SYMATTR Value 5
SYMBOL cap 320 -128 R0
SYMATTR InstName C1
SYMATTR Value 47µ
SYMBOL cap 320 0 R0
SYMATTR InstName C4
SYMATTR Value 47µ
SYMBOL cap -336 -64 M0
SYMATTR InstName C8
SYMATTR Value 100n
SYMBOL cap -112 -112 R0
SYMATTR InstName C9
SYMATTR Value 100n
SYMBOL diode -288 -192 R270
WINDOW 0 32 32 VTop 0
WINDOW 3 0 32 VBottom 0
SYMATTR InstName D1
SYMATTR Value MURS320
SYMBOL diode 400 -64 M180
WINDOW 0 24 72 Left 0
WINDOW 3 24 0 Left 0
SYMATTR InstName D2
SYMATTR Value MURS320
SYMBOL cap -800 160 M180
WINDOW 0 24 64 Left 0
WINDOW 3 24 8 Left 0
SYMATTR InstName C11
SYMATTR Value 1.2n
SYMBOL res -1040 272 M270
WINDOW 0 32 56 VTop 0
WINDOW 3 0 56 VBottom 0
SYMATTR InstName R1
SYMATTR Value 100k
SYMBOL res -1104 224 M270
WINDOW 0 32 56 VTop 0
WINDOW 3 0 56 VBottom 0
SYMATTR InstName R10
SYMATTR Value 10k
SYMBOL res -1040 176 M270
WINDOW 0 32 56 VTop 0
WINDOW 3 0 56 VBottom 0
SYMATTR InstName R11
SYMATTR Value 100k
SYMBOL cap -1328 160 M0
SYMATTR InstName C12
SYMATTR Value 1n
SYMBOL cap -1360 256 R0
SYMATTR InstName C13
SYMATTR Value 10n
SYMBOL res -1312 128 R0
SYMATTR InstName R12
SYMATTR Value 15k
SYMBOL res -1184 96 R90
WINDOW 0 0 56 VBottom 0
WINDOW 3 32 56 VTop 0
SYMATTR InstName R13
SYMATTR Value 80k
SYMBOL diode 720 -432 R0
SYMATTR InstName D5
SYMBOL diode 848 -320 R180
WINDOW 0 24 72 Left 0
WINDOW 3 24 0 Left 0
SYMATTR InstName D6
SYMBOL diode 720 96 R0
SYMATTR InstName D7
SYMBOL diode 832 224 R180
WINDOW 0 24 72 Left 0
WINDOW 3 24 0 Left 0
SYMATTR InstName D8
SYMBOL ind 1088 -96 M270
WINDOW 0 32 56 VTop 0
WINDOW 3 5 56 VBottom 0
SYMATTR InstName L7
SYMATTR Value 22µ
SYMBOL ind2 1344 32 M180
WINDOW 0 36 80 Left 0
WINDOW 3 36 40 Left 0
SYMATTR InstName L8
SYMATTR Value 1.5µ
SYMATTR Type ind
SYMBOL cap 1264 -48 R0
SYMATTR InstName C14
SYMATTR Value 2.7µ
SYMBOL 4046L -928 128 M0
SYMATTR InstName U3
SYMBOL res -1024 -512 M180
WINDOW 0 36 76 Left 0
WINDOW 3 36 40 Left 0
SYMATTR InstName R4
SYMATTR Value 3k
SYMBOL Digital\\buf -592 0 R0
WINDOW 3 8 120 Invisible 0
SYMATTR Value Vhigh=5
SYMATTR InstName A2
SYMATTR Value2 Td=10n
SYMBOL IR2104A -208 -32 R0
SYMATTR InstName X2
SYMBOL IR2110A 192 -16 R0
SYMATTR InstName U5
SYMBOL cap 96 -144 M0
SYMATTR InstName C5
SYMATTR Value 10µ
SYMBOL res -912 -848 R180
WINDOW 0 36 76 Left 0
WINDOW 3 36 40 Left 0
SYMATTR InstName R5
SYMATTR Value 1MEG
SYMBOL res -1296 -512 M180
WINDOW 0 36 76 Left 0
WINDOW 3 36 40 Left 0
SYMATTR InstName R6
SYMATTR Value 3k
SYMBOL res -1184 -848 R180
WINDOW 0 36 76 Left 0
WINDOW 3 36 40 Left 0
SYMATTR InstName R7
SYMATTR Value 1MEG
SYMBOL Digital\\buf -1152 -336 R90
WINDOW 3 8 120 Invisible 0
SYMATTR Value Vhigh=5
SYMATTR InstName A3
SYMATTR Value2 Td=10n
SYMBOL cap 960 -288 R180
WINDOW 0 24 64 Left 0
WINDOW 3 24 8 Left 0
SYMATTR InstName C16
SYMATTR Value 0.075µ
SYMBOL cap 960 336 R180
WINDOW 0 24 64 Left 0
WINDOW 3 24 8 Left 0
SYMATTR InstName C17
SYMATTR Value 0.075µ
SYMBOL ind 1120 80 M90
WINDOW 0 4 56 VBottom 0
WINDOW 3 32 56 VTop 0
SYMATTR InstName L2
SYMATTR Value 0.05µ
SYMATTR SpiceLine Rser=5
SYMATTR Type ind2
SYMBOL res -1024 -832 M90
WINDOW 0 0 56 VBottom 0
WINDOW 3 32 56 VTop 0
SYMATTR InstName R8
SYMATTR Value 10k
SYMBOL res -1296 -832 M90
WINDOW 0 0 56 VBottom 0
WINDOW 3 32 56 VTop 0
SYMATTR InstName R9
SYMATTR Value 10k
SYMBOL res -992 -896 R180
WINDOW 0 36 76 Left 0
WINDOW 3 36 40 Left 0
SYMATTR InstName R14
SYMATTR Value 1MEG
SYMBOL res -1264 -896 R180
WINDOW 0 36 76 Left 0
WINDOW 3 36 40 Left 0
SYMATTR InstName R15
SYMATTR Value 1MEG
SYMBOL Digital\\buf -880 -352 R90
WINDOW 3 8 120 Invisible 0
SYMATTR Value Vhigh=5
SYMATTR InstName A5
SYMATTR Value2 Td=10n
SYMBOL nmos 688 -336 R0
WINDOW 3 -106 -15 Left 0
SYMATTR Value SPA11N60C3
SYMATTR InstName M1
SYMBOL nmos 688 256 R0
WINDOW 3 -106 104 Left 0
SYMATTR Value SPA11N60C3
SYMATTR InstName M2
SYMBOL Robertugo\\comp5_all -1280 -656 M90
SYMATTR InstName U1
SYMATTR SpiceModel LM339_jim
SYMBOL Robertugo\\comp5_all -1008 -656 M90
SYMATTR InstName U2
SYMATTR SpiceModel LM339_jim
TEXT -384 -608 Left 0 !.tran 10000u
TEXT -376 -520 Left 0 !* ic taken from IR2110A_test Gate Driver\n* IR2010 And IR2110 by Helmut Sennewald\n.options reltol=1e-2\n.options trtol=7\n.options gmin 1e-10\n.options method=gear\n.options maxstep=10n
TEXT -1216 -416 Right 0 ;Zerro Cross Detector
TEXT 1416 -72 VLeft 0 ;INDUCTION HEATER
TEXT -1368 40 Left 0 ;LPF
TEXT -624 -936 Left 0 ;RESONANT INDUCTION HEATER - ONLY CONCEPT FOR TEST\nhttp://www.offtop.ru/gauss2k/v7_625902_all_.php?of991=960f6105201e4ea066466bf5da37e0c5
TEXT 1112 -176 Left 0 ;Rser=5 Om
TEXT 1120 40 Left 0 ;Rser=5 Om
RECTANGLE Normal -1456 -368 -848 -1024
RECTANGLE Normal 1328 -368 1440 96
RECTANGLE Normal -1200 368 -1392 16
RECTANGLE Normal 864 416 -416 -544
