Version 4
SHEET 1 4564 1120
WIRE -272 -416 -304 -416
WIRE -352 -400 -496 -400
WIRE -480 -352 -496 -352
WIRE -448 -352 -480 -352
WIRE -352 -352 -368 -352
WIRE -480 -320 -480 -352
WIRE -320 -320 -352 -352
WIRE -272 -320 -272 -416
WIRE -272 -320 -320 -320
WIRE -64 -272 -80 -272
WIRE 32 -272 16 -272
WIRE 48 -272 32 -272
WIRE 144 -272 128 -272
WIRE 32 -192 32 -272
WIRE 32 -192 -112 -192
WIRE 176 -192 32 -192
WIRE -272 -176 -304 -176
WIRE -112 -176 -112 -192
WIRE 176 -176 176 -192
WIRE -352 -160 -496 -160
WIRE -480 -112 -496 -112
WIRE -448 -112 -480 -112
WIRE -352 -112 -368 -112
WIRE -480 -80 -480 -112
WIRE -320 -80 -352 -112
WIRE -272 -80 -272 -176
WIRE -272 -80 -320 -80
WIRE -112 -80 -112 -96
WIRE 0 -80 -112 -80
WIRE 176 -80 176 -96
WIRE 176 -80 64 -80
WIRE -32 -64 -112 -80
WIRE 96 -64 176 -80
WIRE 272 -64 272 -640
WIRE 544 -64 272 -64
WIRE -112 -48 -112 -80
WIRE 176 -48 176 -80
WIRE 784 -48 672 -48
WIRE 240 -32 240 -640
WIRE 544 -32 240 -32
WIRE -160 32 -160 16
WIRE -112 32 -160 32
WIRE 32 32 -112 32
WIRE 176 32 32 32
WIRE 224 32 224 16
WIRE 224 32 176 32
WIRE -272 48 -304 48
WIRE 32 48 32 32
WIRE -352 64 -384 64
WIRE -480 112 -496 112
WIRE -352 112 -480 112
WIRE 640 128 592 128
WIRE 768 128 640 128
WIRE -480 144 -480 112
WIRE -320 144 -352 112
WIRE -272 144 -272 48
WIRE -272 144 -320 144
WIRE 592 144 592 128
WIRE 640 224 640 208
WIRE -32 304 -32 -64
WIRE 96 304 96 -64
WIRE 176 304 176 224
FLAG -32 304 6-C1
IOPIN -32 304 BiDir
FLAG 96 304 7-C1
IOPIN 96 304 BiDir
FLAG -160 -160 7-C1
FLAG 224 -32 7-C1
FLAG -160 -32 6-C1
FLAG 224 -160 6-C1
FLAG 768 128 4-vco
IOPIN 768 128 Out
FLAG -496 -352 R1-11
IOPIN -496 -352 Out
FLAG -496 -160 VCC-16
IOPIN -496 -160 In
FLAG -496 -112 R2-12
IOPIN -496 -112 Out
FLAG 272 -640 Sig-14
IOPIN 272 -640 In
FLAG 240 -640 3-cmp
IOPIN 240 -640 In
FLAG -496 -400 9-vco-in
IOPIN -496 -400 In
FLAG -384 64 9-vco-in
FLAG -496 112 dm-10
IOPIN -496 112 Out
FLAG 784 -48 PFDII-13
IOPIN 784 -48 Out
FLAG -304 -336 COM
FLAG -272 -240 COM
FLAG -304 -96 COM
FLAG -272 0 COM
FLAG -304 128 COM
FLAG -272 224 COM
FLAG -80 -272 COM
FLAG 144 -272 COM
FLAG 224 -112 COM
FLAG -160 -112 COM
FLAG 32 48 COM
FLAG 592 224 COM
FLAG 640 224 COM
FLAG 176 224 COM
FLAG 176 304 8-G
IOPIN 176 304 BiDir
SYMBOL sw -112 -80 M180
SYMATTR InstName S1
SYMBOL sw 176 48 R180
SYMATTR InstName S2
SYMBOL sw 176 -80 R180
SYMATTR InstName S3
SYMBOL sw -112 48 M180
SYMATTR InstName S4
SYMBOL cap 64 -96 R90
WINDOW 0 0 32 VBottom 0
WINDOW 3 32 32 VTop 0
SYMATTR InstName C1
SYMATTR Value 10p
SYMBOL bi2 16 -272 M270
WINDOW 3 -32 40 VBottom 0
WINDOW 0 32 40 VTop 0
SYMATTR Value I=I(R1)*36
SYMATTR InstName B1
SYMBOL bv 592 128 M0
WINDOW 3 24 44 Invisible 0
SYMATTR Value V=ddt(V(6-C1,7-C1))>0 ? 5 : 0
SYMATTR InstName B2
SYMATTR Value2 Tripdt=0.005u Tripdv=0.005m
SYMBOL res 624 112 R0
SYMATTR InstName R3
SYMATTR Value 1G
SYMBOL res -288 -336 R0
SYMATTR InstName R_by-pass-1
SYMATTR Value 2.7k
SYMBOL g -304 -432 R0
WINDOW 3 -475 544 Invisible 0
WINDOW 0 -37 9 Left 0
SYMATTR Value TABLE(0.05, 0.001m) (0.31, 0.005m) (0.5, 0.011m) (2.29V, 0.091m) (3V, 0.12m)
SYMATTR InstName G1
SYMBOL res -288 -96 R0
SYMATTR InstName R_by-pass-2
SYMATTR Value 2.7k
SYMBOL g -304 -192 R0
WINDOW 3 -475 544 Invisible 0
WINDOW 0 -41 9 Left 0
SYMATTR Value TABLE(0.05, 0.001m) (0.31, 0.005m) (0.5, 0.011m) (2.29V, 0.091m) (3V, 0.12m)
SYMATTR InstName G2
SYMBOL bi2 48 -272 M90
WINDOW 3 32 40 VTop 0
WINDOW 0 -32 40 VBottom 0
SYMATTR Value I=I(R2)*90
SYMATTR InstName B3
SYMBOL Digital\\phidet 576 -48 R0
WINDOW 3 0 64 Invisible 0
SYMATTR Value Vhigh={Vhigh1}
SYMATTR InstName A1
SYMATTR Value2 Td={td1} ref={ref1}
SYMBOL res -288 128 R0
SYMATTR InstName R_by-pass-3
SYMATTR Value 2.7k
SYMBOL g -304 32 R0
WINDOW 3 -475 544 Invisible 0
WINDOW 0 -25 14 Left 0
SYMATTR Value 1
SYMATTR InstName G3
SYMBOL res -352 -368 R90
WINDOW 0 0 56 VBottom 0
WINDOW 3 32 56 VTop 0
SYMATTR InstName R1
SYMATTR Value 1n
SYMBOL res -352 -128 R90
WINDOW 0 0 56 VBottom 0
WINDOW 3 32 56 VTop 0
SYMATTR InstName R2
SYMATTR Value 1n
TEXT -480 -536 Left 0 !.ic V(6-C1)=0.5\n.params: Vhigh1=5 ref1=2.5 Td1=50n\n.model SW SW(Ron=5 Roff=1Meg Vt=500m Vh=600m)
TEXT -632 -432 Left 0 ;9 --- VCO_in
TEXT 784 104 Left 0 ;4 --VCO_out
TEXT 608 24 Left 0 ;13 --Phase_COMP II OUT
TEXT 368 -16 Left 0 ;3 --COMP_in
TEXT -552 -200 Left 0 ;VCC
TEXT 336 -88 Left 0 ;14 --(VCO)SIG_in
TEXT -600 80 Left 0 ;DEM_OUT
TEXT -296 400 Left 0 ;author Paksutov Konstantin, Ulyanovsk State University, aka Pogankin@yahoo.com
RECTANGLE Normal 752 256 -480 -608
