* Copyright (c) 2000-2020 Analog Devices, Inc.   All rights reserved.
*
.model LedBlue D(IS=93.2P RS=42M N=7.47 BV=5 IBV=10U CJO=2.97P VJ=0.75 M=0.333 TT=4.32U Iave=40m Vpk=5 type=LED)
.model LedGreen D(IS=93.2P RS=42M N=4.61 BV=4 IBV=10U CJO=2.97P VJ=0.75 M=0.333 TT=4.32U Iave=40m Vpk=4 type=LED)
.model LedRed D(IS=93.2P RS=42M N=3.73 BV=4 IBV=10U CJO=2.97P VJ=0.75 M=0.333 TT=4.32U Iave=40m Vpk=4 type=LED)
.model LedWhite D(IS=0.27n RS=5.65 N=6.79 Cjo=42p Iave=30m Vpk=5 type=LED)
.model SAW8C72A D(IS=9.5431E-24 N=15.2235 RS=58.7176 Iave=40m Vpk=23 mfg=Seulsemicon type=LED)
.model SAW8CF2A D(IS=8.7204E-16 N=54.3698 RS=106.3124 Iave=20m Vpk=46 mfg=Seulsemicon type=LED)
.model 2T0301CW11000012 D(IS=4.8807E-22 N=4.5508 RS=4.9673 Iave=150m Vpk=6.3 mfg=Edison type=LED)
.model 2T03X2CW11000002 D(IS=3.6780E-12 N=5.0217 RS=3.2417 Iave=60m Vpk=3 mfg=Edison type=LED)
.model 10BQ015 D IS=1.66692e-05 RS=0.0549971 N=1.0339 EG=0.6 XTI=0.5 BV=15 IBV=0.001 CJO=4.70891e-10 VJ=1.5 M=0.699718 FC=0.5 TT=0
.model 10BQ040 D IS=2.13126e-05 RS=0.123203 N=1.53952 EG=0.600841 XTI=3.78803 BV=40 IBV=0.0001 CJO=1.53747e-10 VJ=1.5 M=0.476132 FC=0.5 TT=0
.model 10BQ100 D IS=3.8291n RS=100 N=2 EG=0.600259 XTI=0.5 BV=100 IBV=0.0001 CJO=9.19104e-11 VJ=1.5 M=0.527626 FC=0.5 TT=1n
.model 10CTQ150 D IS=1.63362e-06 RS=0.0221615 N=2 EG=0.6 XTI=0.5 BV=150 IBV=5e-05 CJO=4.60092e-10 VJ=0.759589 M=0.500823 FC=0.5 TT=1n
.model 10MQ060N D(Is=.1u Rs=.14 Cjo=102p N=1 M=.3 Eg=.69 Xti=2 Iave=1.5 Vpk=60 mfg=International_Rectifier type=Schottky)
.model 10MQ100N D IS=1e-07 RS=0.0807081 N=1.65612 EG=0.6 XTI=0.5 BV=100 IBV=0.00025 CJO=8.62759e-11 VJ=0.4 M=0.43322 FC=0.5 TT=1n
.model 10TQ045 D IS=9.81804e-08 RS=0.00739225 N=0.993075 EG=0.6 XTI=0.5 BV=45 IBV=0.0001 CJO=1.42434n VJ=1.5 M=0.479175 FC=0.5 TT=0
.model 120LQ045 D IS=5.90313n RS=0.00455345 N=0.737625 EG=1.3 XTI=0.5 BV=45 IBV=0.0001 CJO=1.29866e-08 VJ=0.462963 M=0.473356 FC=0.5 TT=1n
.model 120LQ100 D IS=0.000544678 RS=0.00277937 N=1.83305 EG=0.6 XTI=0.5 BV=100 IBV=0.0001 CJO=6.48813n VJ=0.4 M=0.384061 FC=0.5 TT=1n
.model 12CGQ150 D IS=2.4863e-05 RS=0.0252929 N=2 EG=1.3 XTI=0.5 BV=150 IBV=0.0001 CJO=6.35956e-10 VJ=1.5 M=0.562241 FC=0.5 TT=0
.model 12CTQ045 D IS=5.30534n RS=0.014271 N=0.891364 EG=0.6 XTI=0.5 BV=45 IBV=0.0001 CJO=7.11199e-10 VJ=1.5 M=0.484798 FC=0.5 TT=0
.model 12CWQ04FN D IS=1.05439e-06 RS=0.0173547 N=1.07052 EG=0.6 XTI=0.5 BV=40 IBV=0.0001 CJO=1.51803n VJ=0.4 M=0.516518 FC=0.5 TT=1n
.model 12TQ045 D IS=1.61329e-12 RS=0.01 N=0.5 EG=0.600004 XTI=0.5 BV=45 IBV=0.0001 CJO=1.59319n VJ=1.5 M=0.52241 FC=0.5 TT=0
.model 15CGQ100 D IS=8.74079e-05 RS=0.0180811 N=2 EG=1.3 XTI=3.01057 BV=100 IBV=0.0001 CJO=1.08792n VJ=0.846153 M=0.498115 FC=0.5 TT=0
.model 15CLQ100 D IS=6.44968e-05 RS=0.014091 N=2 EG=0.996757 XTI=0.5 BV=100 IBV=0.005 CJO=1.38463n VJ=0.4 M=0.466344 FC=0.5 TT=0
.model 15ETH06 D IS=2.2756e-08 RS=0.0177161 N=2 EG=0.6 XTI=0.500021 BV=600 IBV=0.0001 CJO=1.6387e-10 VJ=0.71953 M=0.37991 FC=0.5 TT=1n
.model 15LJQ100 D IS=6.15446e-05 RS=0.0153982 N=1.88088 EG=1.3 XTI=3.60437 BV=100 IBV=0.0001 CJO=1.08848n VJ=0.4 M=0.371667 FC=0.5 TT=1n
.model 160CMQ045 D IS=1.34755e-11 RS=0.00275782 N=0.5 EG=0.6 XTI=0.5 BV=1000 IBV=0.0001 CJO=4.75072n VJ=1.5 M=0.542103 FC=0.5 TT=1n
.model 16CYQ150C D IS=1.71508e-05 RS=0.0265393 N=2 EG=1.3 XTI=2.78486 BV=150 IBV=0.0001 CJO=9.98822e-10 VJ=0.4 M=0.484035 FC=0.5 TT=1n
.model 16SYQ060C D IS=1.66638e-08 RS=0.0183025 N=0.65508 EG=0.6 XTI=0.5 BV=60 IBV=0.0001 CJO=6.83071n VJ=0.4 M=0.497741 FC=0.5 TT=1n
.model 16YQ045C D IS=4.98611e-07 RS=0.0130029 N=0.98534 EG=1.3 XTI=2.9591 BV=45 IBV=0.0001 CJO=6.92544n VJ=0.537519 M=0.490188 FC=0.5 TT=1n
.model 16YQ150C D IS=2.63267e-05 RS=0.0169253 N=2 EG=1.3 XTI=2.95537 BV=150 IBV=0.0001 CJO=1.74923n VJ=0.4 M=0.470085 FC=0.5 TT=1n
.model 18TQ045 D IS=1.97424e-13 RS=0.00628392 N=0.530234 EG=0.6 XTI=0.05 BV=45 IBV=0.0001 CJO=8.24939n VJ=1.5 M=0.462568 FC=0.5 TT=0
.model 1N1200C D(IS=9.94e-06 RS=0.00623 CJO=4.528e-10 VJ=0.5189 TT=7.237e-07 M=0.4269 BV=100 N=2 EG=1.11 XTI=3 FC=0.5 IBV=0.0001 Vpk=100V mfg=Motorola type=silicon
.model 1N1206A D(IS=17.1N RS=3.5M N=1.7 BV=600 IBV=397U CJO=495P VJ=0.75 M=0.333 TT=4.32U Vpk=600V Iave=12 mfg=IRF type=silicon)
.model 1N1206C D(IS=9.94e-06 RS=0.00653 CJO=4.528e-10 VJ=0.5189 TT=7.237e-07 M=0.4269 BV=100 N=2 EG=1.11 XTI=3 FC=0.5 IBV=0.0001
.model 1N34A D(IS=2.6u RS=6.5 N=1.6 CJO=0.8p EG=0.67 BV=25 IBV=0.003 Type=GePunctualContact)
.model 1N4001 D(IS=14.11n N=1.984 RS=33.89m Ikf=94.81 Xti=3 Eg=1.11 Cjo=25.89p M=0.44 Vj=0.3245 Fc=0.5 Bv=75 Ibv=10u Tt=5.7u Iave=1 Vpk=50 mfg=GI type=silicon)
.model 1N4002 D(IS=14.11n N=1.984 RS=33.89E-3 Ikf=94.81 Xti=3 Eg=1.110 Cjo=51.17E-12 M=0.2762 Vj=0.3905 Fc=0.5 Isr=100.0E-12 Nr=2 Bv=100.1 Ibv=10 Tt=4.761E-6 Iave=1 Vpk=100 mfg=GI type=silicon)
.model 1N4007 D(IS=7.02767n RS=0.0341512 N=1.80803 EG=1.05743 XTI=5 BV=1000 IBV=5e-08 CJO=1e-11 VJ=0.7 M=0.5 FC=0.5 TT=1e-07 mfg=OnSemi type=silicon)
.model 1N4106 D(BV=12 CJO=107.101P IBV=50U IS=5.72393F M=501.929M RS=100 VJ=750M)
.model 1N4148 D(Is=2.52n Rs=.568 N=1.752 Cjo=4p M=.4 tt=20n Iave=200m Vpk=75 mfg=OnSemi type=silicon)
.model 1N4448HWT D(IS=137f RS=0.168 BV=80 IBV=100n CJO=3.56p M=0.333 N=1.11 TT=5.76n Vpk=80V Iave=0.25 Tt=4ns mfg=DiodesInc type=silicon)
.model 1n4467 D(IS=84.5f N=1 RS=0.1 Ikf=0 Xti=3 Eg=1.11 Cjo=930p M=0.3333 Vj=0.75 Fc=0.5 Isr=83.39n Nr=2 Bv=12.05 Ibv=0.1785 Tt=144.3n type=zener)
.model 1N5355B D(IS=9.15E-16 RS=2.1 TT=5.01E-8 CJO=2.79E-10 M=0.33 BV=17.87 IBV=0.065 Vpk=18V mfg=DiodesInc type=zener )
.model 1N5369B D(IS=1.54e-17 N=1 XTI=1 Rs=.1 Cjo=10p TT=10n BV=51 IBV=25m NBV=35 Vpk=51 mfg=OnSemi type=Zener)
.model 1N5371B D(IS=1.54e-17 N=1 XTI=1 Rs=.1 Cjo=10p TT=10n BV=60 IBV=20m NBV=30 Vpk=60 mfg=OnSemi type=Zener)
.model 1N5373B D(IS=1.54e-17 N=1 XTI=1 Rs=.1 Cjo=10p TT=10n BV=68 IBV=20m NBV=50 Vpk=68 mfg=OnSemi type=Zener)
.model 1N5375B D(IS=1.54e-17 N=1 XTI=1 Rs=.1 Cjo=10p TT=10n BV=82 IBV=15m NBV=35 Vpk=82 mfg=OnSemi type=Zener)
.model 1N5378B D(IS=1.54e-17 N=1 XTI=1 Rs=.1 Cjo=10p TT=10n BV=100 IBV=12m NBV=48 Vpk=100 mfg=OnSemi type=Zener)
.model 1N5711 D(IS=19.7n N=1.51 BV=93.3 IBV=50n RS=6.27 CJO=1.8p VJ=0.75 M=0.333 XTI=2 EG=0.69 TT=10.8p type=Schottky)
.model 1N5806 D(IS=23.3N RS=33.7M N=1.67 BV=150 IBV=1U CJO=66.3P VJ=0.75 M=0.333 TT=43.2N Iave=5 Vpk=150 type=silicon)
.model 1N5806US D(IS=13.14n N=1.607 RS=28.6m Ikf=0.336 Xti=3 Eg=1.11 Cjo=60.7p Isr=168.5n Bv=160 Ibv=100u Tt=36.1n Vpk=150 Iave=5 mfg=Microsemi)
.model 1N5817 D(Is=31.7u Rs=.051 N=1.373 Cjo=190p M=.3 Eg=.69 Xti=2 Iave=1 Vpk=20 mfg=OnSemi type=Schottky)
.model 1N5818 D(Is=31.7u Rs=.051 N=1.373 Cjo=160p M=.38 Eg=.69 Xti=2 Iave=1 Vpk=30 mfg=OnSemi type=Schottky)
.model 1N5819 D(Is=31.7u Rs=.051 N=1.373 Cjo=110p M=.35 Eg=.69 Xti=2 Iave=1 Vpk=40 mfg=OnSemi type=Schottky)
.model 1N5822 D IS=2.5069u N=1.0281 RS=11.15m IKF=403 CJO=980p M=0.47978 VJ=0.3905 ISR=5.226u NR=4.995 EG=0.69 XTI=2 TT=0 FC=0.5 BV=40 IBV=100u Iave=3 Vpk=40 mfg=ST type=Schottky
.model 1N6513 D(IS=0.0000005 N=7.2 RS=0.14 TT=70n CJ0=56.64p VJ=1.67 M=0.5 EG=1.11 XTI=3 FC=0.5 BV=2200 IBV=100u Iave=2 Vpk=2000 mfg=VMI type=Silicon)
.model 1N6515 D(IS=0.5u N=13.5 RS=0.18 TT=70N CJ0=35.24P VJ=3.29 M=0.5 EG=1.11 XTI=3 FC=0.5 BV=3600 IBV=100U Iave=1.5 Vpk=3000 mfg=VMI type=Silicon)
.model 1N6517 D(IS=0.5u N=19.2 RS=0.36 TT=70N CJ0=22.76P VJ=6.41 M=0.5 EG=1.11 XTI=3 FC=0.5 BV=6000 IBV=100U Iave=1 Vpk=5000 mfg=VMI type=Silicon)
.model 1N6519 D(IS=0.5u N=37 RS=0.75 TT=70N CJ0=8.87P VJ=14.03 M=0.5 EG=1.11 XTI=3 FC=0.5 BV=12000 IBV=100U Iave=0.5 Vpk=10000 mfg=VMI type=Silicon)
.model 1N6521 D(IS=0.25u N=6.8 RS=29 TT=70N CJ0=11.94P VJ=1.57 M=0.5 EG=1.11 XTI=3 FC=0.5 BV=2200 IBV=100U Iave=0.6 Vpk=2000 mfg=VMI type=Silicon)
.model 1N6523 D(IS=0.25u N=16 RS=0.48 TT=70N CJ0=4.77P VJ=3.81 M=0.5 EG=1.11 XTI=3 FC=0.5 BV=3600 IBV=100U Iave=0.25 Vpk=3000 mfg=VMI type=Silicon)
.model 1N6525 D(IS=0.25u N=20.4 RS=0.9 TT=70N CJ0=3.1P VJ=6.73 M=0.5 EG=1.11 XTI=3 FC=0.5 BV=6000 IBV=100U Iave=0.15 Vpk=5000 mfg=VMI type=Silicon)
.model 1N6527 D(IS=0.25u N=38.4 RS=1.8 TT=70N CJ0=1.45P VJ=17.06 M=0.5 EG=1.11 XTI=3 FC=0.5 BV=12000 IBV=100U Iave=0.15 Vpk=10000 mfg=VMI type=Silicon)
.model 1N6529 D(IS=0.1u N=8.4 RS=0.8 TT=70N CJ0=4.77P VJ=1.23 M=0.5 EG=1.11 XTI=3 FC=0.5 BV=2200 IBV=100U Iave=0.25 Vpk=2000 mfg=VMI type=Silicon)
.model 1N6531 D(IS=0.1u N=16.3 RS=1 TT=70N CJ0=1.92P VJ=6.21 M=0.5 EG=1.11 XTI=3 FC=0.5 BV=3600 IBV=100U Iave=0.15 Vpk=3000 mfg=VMI type=Silicon)
.model 1N6533 D(IS=0.1u N=22.8 RS=3.8 TT=70N CJ0=1.44P VJ=7.17 M=0.5 EG=1.11 XTI=3 FC=0.5 BV=6000 IBV=100U Iave=0.05 Vpk=5000 mfg=VMI type=Silicon)
.model 1N6535 D(IS=0.1u N=54 RS=14 TT=70N CJ0=0.68P VJ=16.15 M=0.5 EG=1.11 XTI=3 FC=0.5 BV=12000 IBV=100U Iave=0.025 Vpk=10000 mfg=VMI type=Silicon)
.model 1N6823 D(IS=4.258u N=1.265 RS=1.038m Ikf=3.295 Xti=2 Eg=0.69 Cjo=11.7n M=0.564 Isr=362n Nr=2 Bv=120 Ibv=5m Iave=150 Vpk=100 mfg=Microsemi type=Schottky)
.model 1N746 D(IS=31.47f RS=9.494 Ikf=0 N=1 Xti=3 Eg=1.11 Cjo=220p M=0.5959 Vj=0.75 Fc=0.5 Isr=2.035n Nr=2 Bv=3.3 Ibv=45.862m Nbv=3.0477 Ibvl=29.831m Nbvl=11.606 Tbv1=-636.4u Vpk=3.3 mfg=Motorola type=zener)
.model 1N747 D(IS=1.242f RS=1.137 Ikf=0 N=1 Xti=3 Eg=1.11 Cjo=210p M=0.6063 Vj=0.75 Fc=0.5 Isr=1.922n Nr=2 Bv=3.6 Ibv=13.987m Nbv=3.031 Ibvl=10.212m Nbvl=12.73 Tbv1=-555.6u Vpk=3.6 mfg=Motorola type=zener)
.model 1N748 D(IS=1.252f RS=1.156 Ikf=0 N=1 Xti=3 Eg=1.11 Cjo=205p M=0.6004 Vj=0.75 Fc=0.5 Isr=1.867n Nr=2 Bv=3.9 Ibv=17.244m Nbv=2.4016 Ibvl=8.619m Nbvl=13.283 Tbv1=-384.62u Vpk=3.9 mfg=Motorola type=zener)
.model 1N749 D(IS=880.5E-18 RS=0.25 Ikf=0 N=1 Xti=3 Eg=1.11 Cjo=190p M=0.6124 Vj=0.75 Fc=0.5 Isr=1.743n Nr=2 Bv=4.3 Ibv=16.748m Nbv=1.7936 Ibvl=5.0382m Nbvl=12.554 Tbv1=-232.56u Vpk=4.3 mfg=Motorola type=zener)
.model 1N750 D(Is=.88f Rs=.25 Cjo=175p M=.55 nbv=1.7 bv=4.7 Vj=.75 Isr=1.86n Nr=2 Ibv=20.245m Ibvl=1.96m Nbvl=15 Tbv1=-21.3u Vpk=4.7 mfg=OnSemi type=Zener)
.model 1N751 D(IS=1.004f RS=0.5875 Ikf=0 N=1 Xti=3 Eg=1.11 Cjo=160p M=0.5484 Vj=0.75 Fc=0.5 Isr=1.8n Nr=2 Bv=5.1 Ibv=27.721m Nbv=1.1779 Ibvl=1.1646m Nbvl=21.894 Tbv1=176.47u Vpk=5.1 mfg=Motorola type=zener)
.model 1N752 D(IS=1.154f RS=0.9471 Ikf=0 N=1 Xti=3 Eg=1.11 Cjo=150p M=0.5788 Vj=0.75 Fc=0.5 Isr=1.625n Nr=2 Bv=5.6 Ibv=62.583m Nbv=0.62382 Ibvl=631.96u Nbvl=50 Tbv1=267.86u Vpk=5.6 mfg=Motorola type=zener)
.model 1N754 D(IS=1.616f RS=1.818 Ikf=0 N=1 Xti=3 Eg=1.11 Cjo=120p M=0.5117 Vj=0.75 Fc=0.5 Isr=1.698n Nr=2 Bv=6.8 Ibv=2.8814 Nbv=0.28248 Ibvl=1.9426e-6 Nbvl=0.27168 Tbv1=485.29u Vpk=6.8 mfg=Motorola type=zener)
.model 1N755 D(IS=2.077f RS=2.467 Ikf=0 N=1 Xti=3 Eg=1.11 Cjo=104p M=0.5061 Vj=0.75 Fc=0.5 Isr=1.645n Nr=2 Bv=7.5 Ibv=2.5701 Nbv=0.39227 Ibvl=4.0222e-5 Nbvl=0.25042 Tbv1=533.33u Vpk=7.5 mfg=Motorola type=zener)
.model 1N757 D(IS=2.453f RS=2.9 Ikf=0 N=1 Xti=3 Eg=1.11 Cjo=78p M=0.4399 Vj=0.75 Fc=0.5 Isr=1.762n Nr=2 Bv=9.1 Ibv=0.48516 Nbv=0.7022 Ibvl=1m Nbvl=0.13785 Tbv1=604.396u Vpk=9.1 mfg=Motorola type=zener)
.model 1N914 D(Is=2.52n Rs=.568 N=1.752 Cjo=4p M=.4 tt=20n Iave=200m Vpk=75 mfg=OnSemi type=silicon)
.model 1SR154-400 D(Is=534.77E-12 N=1.6239 Rs=50.532E-3 Ikf=4.0010 Cjo=23.729E-12 M=.31942 Vj=.41083 Isr=2.4181E-9 Nr=2.5000 Bv=500 tt=4.1000E-6 Iave=1 Vpk=500 mfg=Rohm type=Rectifier)
.model 1SR154-600 D(Is=1.1191E-9 N=1.6862 Rs=57.049E-3 Ikf=7.0701 Cjo=17.770E-12 M=.36215 Vj=.43005 Isr=1.6686E-9 Nr=2.5000 Bv=750 tt=4.8000E-6 Iave=1 Vpk=750 mfg=Rohm type=Rectifier)
.model 1SR156-400 D(Is=72.169E-9 N=2.0427 Rs=75.306E-3 Ikf=51.357E-3 Cjo=33.986E-12 M=.51481 Vj=.47751 Isr=512.43E-15 Bv=500 tt=245.00E-9 Iave=1 Vpk=500 mfg=Rohm type=Rectifier)
.model 1SS226 D(IS=5.157n N=1.903 RS=0.7407 Ikf=0 Xti=3 Eg=1.11 Cjo=879.9f M=0.1335 Vj=11.85 Fc=0.5 Isr=3.476n Nr=1.945 Bv=85 Ibv=100u Tt=2.308n Iave=100m Vpk=80 mfg=Toshiba type=silicon)
.model 1SS355VM D(Is=1.7962E-9 N=1.7555 Rs=.55113 Ikf=72.153E-3 Cjo=1.3304E-12 M=.11174 Vj=4.1020 Isr=3.2239E-9 Nr=4.0000 Bv=90 tt=11.542E-9 Iave=100m Vpk=90 mfg=Rohm type=Switching)
.model 1SS380VM D(Is=1.417p N=1.414 Rs=109.5m Ikf=31.6m Cjo=2.85p M=268.4m Vj=390.5m Isr=2.511p Nr=4.3 Bv=80 tt=302.1n Iave=0.1 Vpk=40 mfg=Rohm type=Switching)
.model 1SS400CS D(Is=17.02n N=2.071 Rs=524.6m Ikf=5.861 Cjo=729.5f M=114.7m Vj=801.5m Isr=4.45n Bv=90 tt=9.659n Iave=0.1 Vpk=90 mfg=Rohm type=Switching)
.model 1SS400SM D(Is=1.7962E-9 N=1.7555 Rs=.55113 Ikf=72.153E-3 Cjo=1.3304E-12 M=.11174 Vj=4.1020 Isr=3.2239E-9 Nr=4.0000 Bv=90 tt=11.542E-9 Iave=100m Vpk=90 mfg=Rohm type=Switching)
.model 200TD120U D IS=1.4976e-11 RS=0.007312 N=2 EG=0.6 XTI=4 BV=1200 IBV=0.0001 CJO=1.8n VJ=0.4 M=0.45418 FC=0.5 TT=1n
.model 20CJQ030 D IS=7.45927n RS=0.0632601 N=0.89875 EG=1.3 XTI=4 BV=30 IBV=0.0001 CJO=2.9346e-10 VJ=0.4 M=0.427299 FC=0.5 TT=0
.model 20CLQ045 D IS=5.55194e-10 RS=0.01 N=0.736126 EG=0.6 XTI=0.5 BV=45 IBV=0.005 CJO=2.42073n VJ=0.470122 M=0.477502 FC=0.5 TT=0
.model 20ETS12 D IS=8.28224n RS=0.00791517 N=1.61051 EG=1.12793 XTI=0.5 BV=1000 IBV=0.0001 CJO=1e-11 VJ=0.7 M=0.5 FC=0.5 TT=1n
.model 20ETS12A+3S D IS=2.797e-10 RS=0.0113232 N=1.38813 EG=1.07556 XTI=4 BV=1200 IBV=0.0001 CJO=1e-11 VJ=0.7 M=0.5 FC=0.5 TT=1n
.model 20ETS12AVG D IS=3.14987e-10 RS=0.01 N=1.37516 EG=1.06967 XTI=4 BV=1200 IBV=0.0001 CJO=1e-11 VJ=0.7 M=0.5 FC=0.5 TT=1n
.model 22GQ100 D IS=5.91885e-14 RS=0.0197462 N=0.527335 EG=0.6 XTI=0.5 BV=100 IBV=0.0001 CJO=4.67713n VJ=0.4 M=0.513011 FC=0.5 TT=0
.model 30bq015 D IS=50u RS=18m N=1.0339 cjo=1400p vj=1.5 m=0.699718 eg=0.6 xti=0.5 fc=0.5 bv=15 ibv=3m Iave=3 Vpk=15 mfg=International_Rectifier type=Schottky
.model 30BQ060 D(Is=10u Rs=.04 N=1.4 Cjo=180p Eg=.69 Xti=2 Iave=3 Vpk=60 mfg=International_Rectifier type=Schottky)
.model 30CLJQ045 D IS=6.17168e-07 RS=0.0202821 N=1.08809 EG=1.3 XTI=3.29182 BV=45 IBV=0.0001 CJO=1.24067n VJ=0.408846 M=0.481835 FC=0.5 TT=0
.model 30CLJQ150 D IS=1.30646e-06 RS=0.0239928 N=2 EG=1.3 XTI=3.05712 BV=150 IBV=0.0001 CJO=3.73861e-10 VJ=0.4 M=0.457852 FC=0.5 TT=0
.model 30CTH02 D IS=1e-15 RS=0.01 N=0.77819 EG=1.3 XTI=4 BV=200 IBV=0.0001 CJO=4.06302e-10 VJ=0.4 M=0.3385 FC=0.5 TT=1e-07
.model 30CTQ060S D IS=0.001 RS=0.00753336 N=2.31312 EG=0.510131 XTI=0.497683 BV=60 IBV=0.0001 CJO=1.18606n VJ=1.5 M=0.494139 FC=0.5 TT=1n
.model 30EPH06 D IS=3.75476e-10 RS=0.0182211 N=2 EG=0.626585 XTI=0.500695 BV=600 IBV=0.0001 CJO=3.68339e-10 VJ=1.27928 M=0.404368 FC=0.5 TT=1.23518e-08
.model 30LJQ045 D IS=3.01029e-08 RS=0.00758833 N=0.877045 EG=0.6 XTI=0.5 BV=45 IBV=0.0001 CJO=2.65012n VJ=1.18451 M=0.511241 FC=0.5 TT=0
.model 30LJQ100 D IS=2.8036e-05 RS=0.0100392 N=2 EG=0.6 XTI=0.5 BV=100 IBV=0.0001 CJO=1.41531n VJ=0.4 M=0.47998 FC=0.5 TT=0
.model 30LJQ150 D IS=4.79361e-06 RS=0.0108545 N=2 EG=1.3 XTI=0.502388 BV=150 IBV=0.0001 CJO=9.09704e-10 VJ=0.4 M=0.462283 FC=0.5 TT=0
.model 30SCLJQ030 D IS=3.04923e-06 RS=0.0123656 N=1.0506 EG=1.3 XTI=2.9944 BV=30 IBV=0.0001 CJO=1.61571n VJ=0.442068 M=0.472758 FC=0.5 TT=0
.model 30SLJQ030 D IS=2.08649e-07 RS=0.00676047 N=0.86202 EG=0.6 XTI=0.5 BV=30 IBV=0.0001 CJO=5.85622n VJ=0.4 M=0.485403 FC=0.5 TT=0
.model 32CTQ030 D IS=2.21746e-11 RS=0.01 N=0.5 EG=0.6 XTI=2.38672 BV=30 IBV=0.00175 CJO=2.11811n VJ=1.5 M=0.499425 FC=0.5 TT=0
.model 32CTQ030H D IS=1e-15 RS=0.01 N=0.5 EG=1.07785 XTI=4 BV=30 IBV=0.00175 CJO=2.11811n VJ=1.5 M=0.499425 FC=0.5 TT=0
.model 35CGQ100 D IS=1e-15 RS=0.01681 N=0.5 EG=0.608064 XTI=0.500208 BV=100 IBV=0.0001 CJO=2.00581n VJ=1.24629 M=0.513186 FC=0.5 TT=1n
.model 35CLQ045 D IS=2.76847e-07 RS=0.00674255 N=1.0155 EG=1.3 XTI=4 BV=45 IBV=0.0001 CJO=2.76301n VJ=1.01389 M=0.489865 FC=0.5 TT=0
.model 40CPQ050 D IS=2.4532e-11 RS=0.0071 N=0.5 EG=0.6 XTI=0.5 BV=1000 IBV=0.0001 CJO=2.49633n VJ=1.5 M=0.483473 FC=0.5 TT=1n
.model 40CTQ045 D IS=3.357e-08 RS=0.01 N=0.5 EG=1.04653 XTI=0.957426 BV=45 IBV=0.00025 CJO=1.51919e-08 VJ=0.4 M=0.704417 FC=0.5 TT=1n
.model 40EPS08 D IS=1e-15 RS=0.00426912 N=0.926332 EG=0.6 XTI=0.5 BV=800 IBV=0.0001 CJO=1e-11 VJ=0.7 M=0.5 FC=0.5 TT=1n
.model 40EPS12 D IS=1e-15 RS=0.00426912 N=0.926332 EG=0.6 XTI=0.5 BV=1200 IBV=0.0001 CJO=1e-11 VJ=0.7 M=0.5 FC=0.5 TT=1n
.model 40EPS16 D IS=1e-15 RS=0.00426912 N=0.926332 EG=0.6 XTI=0.5 BV=1600 IBV=0.0001 CJO=1e-11 VJ=0.7 M=0.5 FC=0.5 TT=1n
.model 5082-2207 D(BV=5 CJO=0.2p EG=0.69 IBV=10u IS=0.3n N=1.08 RS=5 VJ=0.65 XTI=2 M=0.5 mfg=Agilent type=Schottky)
.model 5082-2209 D(BV=5 CJO=0.2p EG=0.69 IBV=10u IS=0.3n N=1.08 RS=5 VJ=0.65 XTI=2 M=0.5 mfg=Agilent type=Schottky)
.model 5082-2303 D(BV=25 CJO=0.7p EG=0.69 XTI=2 IBV=10u IS=7n N=1.08 RS=10 M=0.5 VJ=0.64 mfg=Agilent type=Schottky)
.model 5082-2765 D(BV=5 CJO=0.2p EG=0.69 IBV=10u IS=40n N=1.08 RS=6 VJ=0.5 XTI=2 M=0.5 mfg=Agilent type=Schottky)
.model 5082-2774 D(BV=5 CJO=0.2p EG=0.69 IBV=10u IS=40n N=1.08 RS=6 VJ=0.5 XTI=2 M=0.5 mfg=Agilent type=Schottky)
.model 5082-2785 D(BV=5 CJO=0.2p EG=0.69 IBV=10u IS=40n N=1.08 RS=6 VJ=0.5 XTI=2 M=0.5 mfg=Agilent type=Schottky)
.model 5082-2794 D(BV=5 CJO=0.2p EG=0.69 IBV=10u IS=40n N=1.08 RS=6 VJ=0.5 XTI=2 M=0.5 mfg=Agilent type=Schottky)
.model 5082-2800 D(BV=75 CJO=1.6p EG=0.69 XTI=2 IBV=10u IS=2.2n N=1.08 RS=25 M=0.5 VJ=0.6 mfg=Agilent type=Schottky)
.model 5082-2810 D(BV=25 CJO=0.8p EG=0.69 XTI=2 IBV=10u IS=1.1n N=1.08 RS=10 M=0.5 VJ=0.6 mfg=Agilent type=Schottky)
.model 5082-2811 D(BV=18 CJO=1p EG=0.69 XTI=2 IBV=10u IS=3n N=1.08 RS=10 M=0.5 VJ=0.6 mfg=Agilent type=Schottky)
.model 5082-2835 D(BV=9 CJO=0.7p EG=0.69 XTI=2 IBV=10u IS=22n N=1.08 RS=5 M=0.5 VJ=0.56 mfg=Agilent type=Schottky)
.model 5082-2900 D(BV=10 CJO=1.1p EG=0.69 XTI=2 IBV=10u IS=10n N=1.08 RS=15 M=0.5 VJ=0.64 mfg=Agilent type=Schottky)
.model 50WQ06FN D IS=1e-15 RS=0.0205874 N=0.5 EG=1.3 XTI=0.5 BV=1000 IBV=0.0001 CJO=8.86241e-10 VJ=0.899259 M=0.559144 FC=0.5 TT=1n
.model 5EQ100 D IS=8.77154e-05 RS=0.0202145 N=2 EG=0.815312 XTI=3.9995 BV=100 IBV=0.005 CJO=1.06148n VJ=0.79108 M=0.475554 FC=0.5 TT=0
.model 60LQ045 D IS=1e-07 RS=0.00252226 N=0.914851 EG=0.6 XTI=0.5 BV=45 IBV=0.0001 CJO=6.87655n VJ=0.4 M=0.408789 FC=0.5 TT=0
.model 60LQ100 D IS=0.001 RS=0.0026041 N=1.79037 EG=0.6 XTI=0.5 BV=100 IBV=0.0001 CJO=4.12278n VJ=0.4 M=0.477205 FC=0.5 TT=0
.model 6CWQ04FN D IS=7.48131e-13 RS=0.0287717 N=0.540086 EG=0.6 XTI=0.5 BV=40 IBV=0.0001 CJO=5.09354e-10 VJ=0.795245 M=0.513157 FC=0.5 TT=1n
.model 6CWQ10FN D IS=1.92816e-06 RS=0.0227346 N=2 EG=0.6 XTI=0.5 BV=100 IBV=0.001 CJO=2.9028e-10 VJ=0.4 M=0.453836 FC=0.5 TT=1n
.model 6TQ045 D IS=1.1357e-08 RS=0.0148614 N=0.895316 EG=1.3 XTI=4 BV=45 IBV=0.0001 CJO=7.53573e-10 VJ=1.5 M=0.502931 FC=0.5 TT=0
.model 75LQ150 D IS=6.47147e-05 RS=0.00457083 N=2 EG=0.6 XTI=0.5 BV=150 IBV=0.0001 CJO=3.61923n VJ=0.4 M=0.479638 FC=0.5 TT=0
.model 75SLQ030 D IS=1.05375e-05 RS=0.00235787 N=0.994404 EG=1.3 XTI=0.5 BV=30 IBV=0.0001 CJO=1.14291e-08 VJ=0.4 M=0.46991 FC=0.5 TT=0
.model 80CLQ150 D IS=3.00965e-05 RS=0.00595685 N=2 EG=1.3 XTI=3.40773 BV=150 IBV=0.0001 CJO=1.45286n VJ=0.4 M=0.415374 FC=0.5 TT=0
.model 80ebu02 D IS=6.10239u RS=0.00151476 N=2 EG=0.1 XTI=0.0005 BV=200 IBV=50u CJO=1.77691n VJ=0.4 M=0.495417 FC=0.5 TT=1n
.model 8EQ045 D IS=1.8026e-05 RS=0.0138308 N=1.50131 EG=0.689509 XTI=4 BV=45 IBV=0.005 CJO=1.98488n VJ=0.711167 M=0.477336 FC=0.5 TT=0
.model 8ETH06 D IS=6.92843e-10 RS=0.121017 N=2 EG=1.3 XTI=0.528448 BV=600 IBV=0.0001 CJO=1.56732e-10 VJ=0.4 M=0.404011 FC=0.5 TT=1n
.model 8EWS08 D IS=1.04304e-07 RS=0.0103888 N=2 EG=1.28885 XTI=3.00461 BV=800 IBV=0.0001 CJO=1e-11 VJ=0.7 M=0.5 FC=0.5 TT=1n
.model 8EWS10 D IS=1.17378e-07 RS=0.0104837 N=2 EG=1.29966 XTI=3.06473 BV=1000 IBV=0.0001 CJO=1e-11 VJ=0.7 M=0.5 FC=0.5 TT=1n
.model 8EWS12 D IS=1e-07 RS=0.0115955 N=1.9747 EG=0.6 XTI=0.5 BV=1200 IBV=0.0001 CJO=1e-11 VJ=0.7 M=0.5 FC=0.5 TT=1n
.model 90CLQ100 D IS=0.00032603 RS=0.00931445 N=2 EG=1.3 XTI=0.5 BV=100 IBV=0.0001 CJO=3.07785n VJ=0.4 M=0.479989 FC=0.5 TT=0
.model AA112 D IS=1.2u N=1.4 RS=80 cjo=1.2p tt=18n eg=0.69 type=germanium
.model AEG_AA112 D(IS=2.777779u RS=35.67365 BV=20 IBV=0.0022 CJO=1p TT=1p M=0.5 VJ=1 N=2.172326 EG=0.67 FC=0.5 type=germanium)
.model AEG_AA117 D(IS=1.111111E-05 RS=46.02731 BV=115 IBV=0.006 CJO=1p TT=1p ISR=1.581139E-06 M=0.5 VJ=0.5 N=3.542911 IKF=0.03 NR=29.56001 EG=0.67 FC=0.5 XTI=3.012615 NBV=14.78 IBVL=0.00007 NBVL=22.17001 type=germanium
.model AL307 D(IS=5.493858e-021 N=1.41399 RS=46.6023 TT=5U CJO=5P VJ=750M EG=1.43 type=LED mfg=USSR)
.model AOT-2015 D(Is=5.961e-10 Rs=1.07 N=6.222 Cjo=.5n Xti=200 Iave=175mA Vpk=5 mfg=AOT type=LED)
.model APT1608SURCK d(IS=2.01E-17 N=2.139 RS=2 m=0.431 Vj=2.32 Cjo=35pF IBV=10u BV=5 EG=2.26 XTI=3 Iave=30mA Vpk=5 mfg=Kingbright type=LED)
.model B0520WS D(IS=1.96u RS=0.131 BV=20.0 IBV=250u CJO=170p M=0.333 N=0.907 TT=7.2n Vpk=20V Iave=0.5A mfg=Diodes_Inc type=Schottky )
.model B520C D(Is=200u Rs=8m Cjo=300p N=1.7 Ikf=2 Isr=200u Nr=2 Iave=5 Vpk=20 mfg=Diodes_Inc. type=Schottky)
.model B530C D(Is=200u Rs=8m Cjo=300p N=1.7 Ikf=2 Isr=200u Nr=2 Iave=5 Vpk=30 mfg=Diodes_Inc. type=Schottky)
.model B540C D(Is=200u Rs=8m Cjo=300p N=1.7 Ikf=2 Isr=200u Nr=2 Iave=5 Vpk=40 mfg=Diodes_Inc. type=Schottky)
.model B550C D(Is=20u Rs=25m Cjo=300p N=1.7 Ikf=10 Isr=100u Nr=2 Iave=5 Vpk=50 mfg=Diodes_Inc. type=Schottky)
.model B560C D(Is=20u Rs=25m Cjo=300p N=1.7 Ikf=10 Isr=100u Nr=2 Iave=5 Vpk=60 mfg=Diodes_Inc. type=Schottky)
.model BAS116 D(BV=75 CJO=1.83p EG=1.11 FC=0.5 IBV=100u IS=1.48E-13 M=0.262 N=1.33 RS=8.48E-01 TT=8.66n VJ=3.44E-01 XTI=3 type=silicon)
.MODEL BAS16HM D(Is=1.7962E-9 N=1.7555 Rs=.55113 Ikf=72.153E-3 Cjo=1.3304E-12 M=.11174 Vj=4.1020 Isr=3.2239E-9 Nr=4 Bv=100 tt=11.542E-9 Iave=0.215 Vpk=100 mfg=Rohm type=Switching)
.model BAS21 D(IS=41.7n RS=0.270 BV=200 IBV=100n CJO=2.98p M=0.333 N=2.35 TT=72.0n Vpk=200V Iave=0.400A mfg=DiodesInc type=silicon )
.model BAS216 D(IS=6.0289E-9 N=2.1283 RS=1.0000E-3 IKF=37.638E-3 CJO=593.63E-15 M=0.1 VJ=0.68774 ISR=2.0646E-9 NR=4.9950 BV=113.60 IBV=10 TT=4.5n mfg=Philips type=silicon )
.MODEL BAS21HM D(Is=83.537E-12 N=1.4136 Rs=.45768 Ikf=2.6057E-3 Cjo=2.5500E-12 M=.27649 Vj=.5751 Isr=170.76E-12 Nr=3.8 Bv=250 tt=28.590E-9 Trs1=0.0005 Iave=0.2 Vpk=250 mfg=Rohm type=Switching)
.model BAS21VM D(Is=83.54p N=1.291 Rs=562.1m Ikf=860.5u Eg=910m Cjo=2.494p M=262.4m Vj=503.5m Isr=259.8p Nr=3.8 Bv=250 tt=28.59n Trs1=1.5m Tikf=12m Iave=0.215 Vpk=250 mfg=Rohm type=Switching)
.model BAS316 D IS=6.0289n N=2.1283 RS=1m IKF=37.638m CJO=593.63f M=0.1 VJ=0.68774 ISR=2.0646n NR=4.995 BV=113.6 IBV=10 TT=4.5n Iave=200m Vpk=75 mfg=NXP type=silicon
.MODEL BAS40-04HM D(Is=151.03E-9 N=1.3970 Rs=1.4012 Ikf=4.2417E-3 Xti=2 Eg=.69 Cjo=6.1630E-12 M=.35682 Vj=.52912 Isr=31.678E-9 Nr=1.6 Bv=40 Trs1=-0.003 Iave=0.12 Vpk=40 mfg=Rohm type=Schottky)
.MODEL BAS40-05HM D(Is=151.03E-9 N=1.3970 Rs=1.4012 Ikf=4.2417E-3 Xti=2 Eg=.69 Cjo=6.1630E-12 M=.35682 Vj=.52912 Isr=31.678E-9 Nr=1.6 Bv=40 Trs1=-0.003 Iave=0.12 Vpk=40 mfg=Rohm type=Schottky)
.MODEL BAS40-06HM D(Is=151.03E-9 N=1.3970 Rs=1.4012 Ikf=4.2417E-3 Xti=2 Eg=.69 Cjo=6.1630E-12 M=.35682 Vj=.52912 Isr=31.678E-9 Nr=1.6 Bv=40 Trs1=-0.003 Iave=0.12 Vpk=40 mfg=Rohm type=Schottky)
.MODEL BAS40HM D(Is=151.03E-9 N=1.3970 Rs=1.4012 Ikf=4.2417E-3 Xti=2 Eg=.69 Cjo=6.1630E-12 M=.35682 Vj=.52912 Isr=31.678E-9 Nr=1.6000 Bv=40 Trs1=-0.003 Iave=0.12 Vpk=40 mfg=Rohm type=Schottky)
.model BAS516 D IS=2.9891n N=1.9303 RS=0.78115 IKF=0.085491m CJO=383.41f M=0.1 VJ=9.99 ISR=6.8038n NR=4.9950 BV=130.38 IBV=10 TT=3.0297n
.model bas70 D IS=3n RS=29 N=1.06 tt=25p cjo=1.55p vj=0.36 m=0.29 eg=0.68 xti=1.8 fc=0.5 bv=70 ibv=100n Vpk=70 type=Schottky
.model BAS81 D(IS=86.03n N=1.678 RS=11.45 Ikf=914.9u Xti=3 Eg=1.11 Cjo=1.8p M=0.3333 Vj=0.75 Fc=0.5 Isr=15.8E-30 Nr=6.116 Bv=100 Ibv=100u Tt=5n type=Schottky)
.model BAT46WJ D(Is=.1703u N=1.06 Rs=1.3 Cjo=35p Vj=.4 M=.5 Eg=.69 XTI=2 Iave=.25 Vpk=100 mfg=NXP type=Schottky)
.model BAT54 D(Is=.1u Rs=2.2 N=1 Cjo=12p M=.3 Eg=.69 Xti=2 Iave=300m Vpk=30 mfg=Vishay type=Schottky)
.MODEL BAT54AHM D(Is=85.777E-9 N=1.0710 Rs=.45336 Ikf=21.653 Xti=2 Eg=.67 Cjo=31.124E-12 M=.47078 Vj=.5022 Isr=7.640E-8 Nr=2.3 Bv=30 Trs1=0.0042 Iave=0.2 Vpk=30 mfg=Rohm type=Schottky)
.MODEL BAT54CHM D(Is=97.864E-9 N=1.1435 Rs=.80019 Ikf=29.354 Xti=2 Eg=.69 Cjo=17.406E-12 M=.43177 Vj=.50393 Isr=34.375E-9 Nr=1.3 Bv=30 Trs1=0.003 Iave=0.2 Vpk=30 mfg=Rohm type=Schottky)
.MODEL BAT54HM D(Is=85.777E-9 N=1.0710 Rs=.45336 Ikf=21.653 Xti=2 Eg=.67 Cjo=31.124E-12 M=.47078 Vj=.5022 Isr=7.640E-8 Nr=2.3 Bv=30 Trs1=0.0042 Iave=0.2 Vpk=30 mfg=Rohm type=Schottky)
.MODEL BAT54SHM D(Is=85.777E-9 N=1.0710 Rs=.45336 Ikf=21.653 Xti=2 Eg=.67 Cjo=31.124E-12 M=.47078 Vj=.5022 Isr=7.640E-8 Nr=2.3 Bv=30 Trs1=0.0042 Iave=0.2 Vpk=30 mfg=Rohm type=Schottky)
.MODEL BAV170HM D(Is=1.5619E-12 N=1.3911 Rs=.61265 Ikf=4.6442 Cjo=2.4780E-12 M=.2722 Vj=.50196 Isr=4.4836E-12 Nr=3 Bv=100 tt=500E-9 Iave=0.215 Vpk=100 mfg=Rohm type=Switching)
.MODEL BAV199HM D(Is=1.5619E-12 N=1.3911 Rs=.61265 Ikf=4.6442 Cjo=2.4780E-12 M=.2722 Vj=.50196 Isr=4.4836E-12 Nr=3 Bv=100 tt=500E-9 Iave=0.215 Vpk=100 mfg=Rohm type=Switching)
.MODEL BAV70HM D(Is=1.2872E-9 N=1.7918 Rs=.90633 Ikf=83.541E-3 Cjo=628.00E-15 M=.12181 Vj=7.4703 Isr=3.4924E-9 Nr=2.3 Bv=90 tt=27.411E-9 Iave=0.215 Vpk=90 mfg=Rohm type=Switching)
.MODEL BAV99HM D(Is=1.7962E-9 N=1.7555 Rs=.55113 Ikf=72.153E-3 Cjo=1.3304E-12 M=.11174 Vj=4.1020 Isr=3.2239E-9 Nr=4 Bv=100 tt=11.542E-9 Iave=0.215 Vpk=100 mfg=Rohm type=Switching)
.MODEL BAW156HM D(Is=1.5619E-12 N=1.3911 Rs=.61265 Ikf=4.6442 Cjo=2.4780E-12 M=.2722 Vj=.50196 Isr=4.4836E-12 Nr=3 Bv=100 tt=500E-9 Iave=0.215 Vpk=100 mfg=Rohm type=Switching)
.MODEL BAW56HM D(Is=1.7962E-9 N=1.7555 Rs=.55113 Ikf=72.153E-3 Cjo=1.3304E-12 M=.11174 Vj=4.1020 Isr=3.2239E-9 Nr=4 Bv=100 tt=11.542E-9 Iave=0.215 Vpk=100 mfg=Rohm type=Switching)
.model BB112 D(IS=1e-14 RS=0.0011 CJO=2.324n VJ=0.75 TT=5n M=0.9 BV=100 XTI=3 FC=0.5 IBV=0.0001 mfg=Philips type=varactor
.model BB119 D IS=1.122e-17 RS=0.0011 CJO=4.163e-11 VJ=0.75 TT=5n M=0.3333 BV=100 N=1 EG=1.11 XTI=3 FC=0.5 IBV=0.0001 TNOM=27 mfg=Philips type=varactor
.model BB130 D IS=1e-14 RS=0.0011 CJO=5.563e-11 VJ=0.75 TT=5n M=0.3333 BV=100 N=1 EG=1.11 XTI=3 FC=0.5 IBV=0.0001 TNOM=27 mfg=Philips type=varactor
.model BB133 D(BV=30 CJO=53.493515P IBV=100P IS=10F M=1 RS=1M VJ=1.931292 type=varactor)
.model BB204B D IS=1e-14 RS=0.0011 CJO=7.783e-11 VJ=0.75 TT=5n M=0.4705 BV=100 N=1 EG=1.11 XTI=3 FC=0.5 IBV=0.0001 TNOM=27 mfg=Philips type=varactor
.model BB204G D IS=1e-14 RS=0.0011 CJO=8.431e-11 VJ=0.75 TT=5n M=0.4711 BV=100 N=1 EG=1.11 XTI=3 FC=0.5 IBV=0.0001 TNOM=27 mfg=Philips type=varactor
.model BB212 D(IS=1e-14 RS=0.0011 CJO=7.202e-10 VJ=0.10 TT=5n M=0.9 BV=100 XTI=3 FC=0.5 IBV=0.0001 mfg=Philips type=varactor
.model BB215 D IS=1e-14 RS=0.0011 CJO=3.249e-11 VJ=0.75 TT=5n M=0.7646 BV=100 N=1 EG=1.11 XTI=3 FC=0.5 IBV=0.0001 TNOM=27 mfg=Philips type=varactor
.model BB219 D IS=1e-14 RS=0.0011 CJO=6.351e-11 VJ=0.75 TT=5n M=0.8465 BV=100 N=1 EG=1.11 XTI=3 FC=0.5 IBV=0.0001 TNOM=27 mfg=Philips type=varactor
.model BB240 D IS=1e-14 RS=0.0011 CJO=2.479e-08 VJ=0.75 TT=5n M=0.77 BV=100 N=1 EG=1.11 XTI=3 FC=0.5 IBV=0.0001 TNOM=27 mfg=Philips type=varactor
.model BB241 D IS=1e-14 RS=0.0011 CJO=1.049e-10 VJ=0.75 TT=5n M=0.9987 BV=100 N=1 EG=1.11 XTI=3 FC=0.5 IBV=0.0001 TNOM=27 mfg=Philips type=varactor
.model BB249 D IS=1e-14 RS=0.0011 CJO=8.387e-11 VJ=0.75 TT=5n M=0.8022 BV=100 N=1 EG=1.11 XTI=3 FC=0.5 IBV=0.0001 TNOM=27 mfg=Philips type=varactor
.model BB405B D IS=1e-14 RS=0.0011 CJO=2.673e-11 VJ=1.922 TT=5n M=0.9446 BV=100 N=1 EG=1.11 XTI=3 FC=0.5 IBV=0.0001 TNOM=27 mfg=Philips type=varactor
.model BB417 D IS=1e-14 RS=0.0011 CJO=5.329e-11 VJ=0.75 TT=5n M=0.9343 BV=100 N=1 EG=1.11 XTI=3 FC=0.5 IBV=0.0001 TNOM=27 mfg=Philips type=varactor
.model BB515 D IS=1e-14 RS=0.0011 CJO=3.412e-11 VJ=0.75 TT=5n M=0.7712 BV=30.36 N=1 EG=1.11 XTI=3 FC=0.5 IBV=10 TNOM=27 mfg=Philips type=varactor
.model BB535/SIE D(IS=1.75E-15 N=1.043 RS=60E-3 XTI=3 EG=1.11 CJO=25.31E-12 M=1.064 VJ=3.022 FC=0.5 BV=32 IBV=100E-9 TT=120E-9 type=varactor)
.model BB545/SIE D(IS=110.11E-15 RS=0.24545 N=1.2034 XTI=3 EG=1.11 CJo=38.264P M=0.87698 Vj=0.91294 FC=0 BV=30 IBV=5E-6 TT=80N type=varactor)
.model BB619 D IS=1e-14 RS=0.0011 CJO=8.244e-11 VJ=0.75 TT=5n M=0.9376 BV=30.36 N=1 EG=1.11 XTI=3 FC=0.5 IBV=10 TNOM=27 mfg=Philips type=varactor
.model BB620 D IS=1e-14 RS=0.0011 CJO=1.756e-10 VJ=0.75 TT=5n M=0.9 BV=30.36 N=1 EG=1.11 XTI=3 FC=0.5 IBV=10 TNOM=27 mfg=Philips type=varactor
.model BB639/SIE D(IS=4E-15 N=1.035 RS=0.12 XTI=3 EG=1.11 CJO=55.88E-12 M=1.286 VJ=2.922 FC=0.5 BV=32 IBV=100E-9 TT=160E-9 type=varactor)
.model BB804 D IS=1e-14 RS=0.0011 CJO=6.9e-11 VJ=0.75 TT=5n M=0.3333 BV=30.36 N=1 EG=1.11 XTI=3 FC=0.5 IBV=10 TNOM=27 mfg=Philips type=varactor
.model BB804/SIE D(IS=48F N=1.13 RS=0.18 XTI=3 EG=1.11 CJO=80.6P M=0.47 VJ=0.8 FC=0.5 BV=20 IBV=0.1U TT=137N type=varactor)
.model BB809 D IS=1e-14 RS=0.0011 CJO=8.387e-11 VJ=0.75 TT=5n M=0.8022 BV=30.36 N=1 EG=1.11 XTI=3 FC=0.5 IBV=10 TNOM=27 mfg=Philips type=varactor
.model BB811 D IS=1e-14 RS=0.0011 CJO=1.687e-11 VJ=0.75 TT=5n M=0.7681 BV=30.36 N=1 EG=1.11 XTI=3 FC=0.5 IBV=10 TNOM=27 mfg=Philips type=varactor
.model BB814/SIE D(IS=7f N=1.012 RS=0.18 XTI=3 EG=1.11 CJO=83.9p M=0.775 VJ=1.6 FC=0.5 BV=20 IBV=100n TT=137n type=varactor)
.model BB833/SIE D(IS=42.156E-15 N=1.1718 RS=0.10785 XTI=3 EG=1.11 CJO=29.033E-12 M=0.90022 VJ=0.39089 FC=0.5 BV=32 IBV=5E-6 TT=120E-9 type=varactor)
.model BB909A D IS=1e-14 RS=0.0011 CJO=3.725e-11 VJ=10 TT=5n M=0.9 BV=100 N=1 EG=1.11 XTI=3 FC=0.5 IBV=0.0001 TNOM=27 mfg=Philips type=varactor
.model BB909B D IS=1e-14 RS=0.0011 CJO=4.028e-11 VJ=10 TT=5n M=0.9 BV=100 N=1 EG=1.11 XTI=3 FC=0.5 IBV=0.0001 TNOM=27 mfg=Philips type=varactor
.model BB910 D IS=1e-14 RS=0.0011 CJO=5.92e-11 VJ=0.75 TT=5n M=0.8679 BV=100 N=1 EG=1.11 XTI=3 FC=0.5 IBV=0.0001 TNOM=27 mfg=Philips type=varactor
.model BB911 D IS=1e-14 RS=0.0011 CJO=1.049e-10 VJ=0.75 TT=5n M=0.9987 BV=100 N=1 EG=1.11 XTI=3 FC=0.5 IBV=0.0001 TNOM=27 mfg=Philips type=varactor
.model BB914/SIE D(IS=10.00E-15 N=1.020 RS=0.28 IKF=0 XTI=3 EG=1.11 CJO=75.54E-12 M=1.161 VJ=3.445 FC=0.5 ISR=100E-12 NR=2 BV=20 IBV=100E-9 TT=137.0E-9 type=varactor)