Version 4
SHEET 1 880 680
WIRE 112 144 -448 144
WIRE 112 176 -320 176
WIRE 368 176 304 176
WIRE 112 224 -192 224
WIRE 352 224 304 224
WIRE 368 224 352 224
WIRE 112 256 -64 256
WIRE -448 288 -448 144
WIRE -320 288 -320 176
WIRE -192 288 -192 224
WIRE -64 288 -64 256
WIRE 352 288 352 224
WIRE -448 400 -448 368
WIRE -320 400 -320 368
WIRE -192 400 -192 368
WIRE -64 400 -64 368
WIRE 352 400 352 368
WIRE 112 480 64 480
WIRE 112 512 64 512
WIRE 368 512 304 512
WIRE 112 560 64 560
WIRE 352 560 304 560
WIRE 112 592 64 592
WIRE 352 592 352 560
FLAG -448 400 0
FLAG -320 400 0
FLAG 352 400 0
FLAG 368 176 sum+
FLAG -448 144 a1
FLAG -192 400 0
FLAG -192 224 b1
FLAG -320 176 a2
FLAG 368 224 sum-
FLAG -64 400 0
FLAG -64 256 b2
FLAG 368 512 sum2
FLAG 64 480 a1
FLAG 64 512 a2
FLAG 64 560 b1
FLAG 64 592 b2
FLAG 352 592 0
SYMBOL voltage -448 272 R0
SYMATTR InstName V1
SYMATTR Value 5
SYMBOL voltage -320 272 R0
SYMATTR InstName V2
SYMATTR Value 2
SYMBOL voltage 352 272 R0
SYMATTR InstName Voffset
SYMATTR Value -1
SYMBOL voltage -192 272 R0
SYMATTR InstName V3
SYMATTR Value 3
SYMBOL voltage -64 272 R0
SYMATTR InstName V4
SYMATTR Value 2
SYMBOL Adder2w 160 192 R0
SYMATTR InstName U1
SYMATTR SpiceLine A=2.5 B=1
SYMBOL Adder2w 160 528 R0
SYMATTR InstName U2
SYMATTR SpiceLine A=1 B=-1
TEXT -456 64 Left 0 !.op
TEXT -456 32 Left 0 !.include adder2w.sub
TEXT 0 64 Left 0 ;V(O+,O-) = V(A+,A-)*A + V(B+, B-)*B
TEXT -464 -24 Left 0 ;Example of a subcircuit with parameter passing
