Version 4
SHEET 1 880 680
WIRE 272 144 -16 144
WIRE 432 144 336 144
WIRE -16 160 -16 144
WIRE 272 160 272 144
WIRE 336 160 336 144
WIRE 432 192 432 144
WIRE 176 208 32 208
WIRE -272 224 -336 224
WIRE -192 224 -272 224
WIRE -112 224 -192 224
WIRE -64 224 -112 224
WIRE -112 240 -112 224
WIRE 176 240 176 208
WIRE -192 256 -192 224
WIRE -336 272 -336 224
WIRE 272 304 272 240
WIRE -272 320 -272 224
WIRE -112 320 -112 304
WIRE -48 320 -48 272
WIRE -48 320 -112 320
WIRE -16 320 -48 320
WIRE 96 320 64 320
WIRE -48 336 -48 320
WIRE -192 384 -192 320
WIRE -160 384 -192 384
WIRE -160 400 -160 384
WIRE -336 432 -336 336
WIRE -272 432 -272 400
WIRE -272 432 -336 432
WIRE -192 432 -192 384
WIRE -192 432 -272 432
WIRE -48 432 -48 400
WIRE -48 432 -192 432
WIRE 96 432 96 320
WIRE 96 432 -48 432
WIRE 176 432 176 320
WIRE 176 432 96 432
WIRE 272 432 272 384
WIRE 272 432 176 432
WIRE 336 432 336 240
WIRE 336 432 272 432
WIRE 432 432 432 272
WIRE 432 432 336 432
FLAG -160 400 0
SYMBOL cap -128 240 R0
SYMATTR InstName C1
SYMATTR Value 1f
SYMBOL cap -64 336 R0
WINDOW 0 -40 13 Left 0
WINDOW 3 -46 57 Left 0
SYMATTR InstName C2
SYMATTR Value 22p
SYMBOL res -288 304 R0
WINDOW 0 40 59 Left 0
WINDOW 3 31 87 Left 0
SYMATTR InstName R1
SYMATTR Value 47K
SYMATTR SpiceLine tol=1 pwr=0.1
SYMBOL voltage 272 288 R0
WINDOW 3 -19 59 Left 0
WINDOW 123 0 0 Left 0
WINDOW 0 -36 107 Left 0
SYMATTR Value 370
SYMATTR InstName V1
SYMATTR SpiceLine Rser=10 Cpar=50u
SYMBOL voltage 176 224 R0
WINDOW 3 -19 59 Left 0
WINDOW 123 0 0 Left 0
WINDOW 0 -34 102 Left 0
SYMATTR Value 150
SYMATTR InstName V2
SYMATTR SpiceLine Rser=1 Cpar=10u
SYMBOL ind2 256 144 R0
WINDOW 0 -32 12 Top 0
WINDOW 3 -25 62 Bottom 0
SYMATTR InstName L1
SYMATTR Value 100µ
SYMATTR SpiceLine Ipk=0.5 Rser=0.1 Rpar=0 Cpar=0 mfg="Hurricane" pn="HL-8126"
SYMATTR Type ind
SYMBOL ind -32 336 R270
WINDOW 0 52 56 VRight 0
WINDOW 3 -13 31 VRight 0
SYMATTR InstName L3
SYMATTR Value 80µ
SYMATTR SpiceLine Ipk=1.5 Rser=1.3 Rpar=45000 Cpar=220f mfg="Gowanda" pn="894AT1004V"
SYMBOL diode -208 256 R0
WINDOW 3 -19 -26 VRight 0
SYMATTR Value MURS120
SYMATTR InstName D1
SYMBOL ind2 352 144 M0
WINDOW 0 -32 12 Top 0
WINDOW 3 -25 62 Bottom 0
SYMATTR InstName L2
SYMATTR Value 1µ
SYMATTR SpiceLine Ipk=0.5 Rser=0.1 Rpar=0 Cpar=0 mfg="Hurricane" pn="HL-8126"
SYMATTR Type ind
SYMBOL res 416 176 R0
WINDOW 0 40 45 Left 0
WINDOW 3 31 87 Left 0
SYMATTR InstName R2
SYMATTR Value 300
SYMATTR SpiceLine tol=1 pwr=0.1
SYMBOL Valve\\Tetrode -16 208 R0
WINDOW 0 53 -44 Left 0
WINDOW 38 92 -16 Center 0
SYMATTR InstName U1
SYMATTR SpiceModel 6DQ6B
TEXT -264 192 Left 0 !.tran 0 100u 0 10n
TEXT -256 168 Left 0 !.options trtol=2
TEXT 304 144 VRight 0 !K L1 L2 .999
