Version 4
SHEET 1 880 680
WIRE 16 64 -16 64
WIRE 224 64 96 64
WIRE 272 64 224 64
WIRE 272 112 272 64
WIRE -16 128 -16 64
WIRE 48 128 -16 128
WIRE 224 128 224 64
WIRE 224 128 128 128
WIRE -16 160 -16 128
WIRE 208 208 32 208
WIRE -192 224 -256 224
WIRE -112 224 -192 224
WIRE -64 224 -112 224
WIRE -112 240 -112 224
WIRE 208 240 208 208
WIRE -256 272 -256 224
WIRE -192 288 -192 224
WIRE 272 304 272 192
WIRE -112 320 -112 304
WIRE -48 320 -48 272
WIRE -48 320 -112 320
WIRE -16 320 -48 320
WIRE 96 320 64 320
WIRE 144 320 96 320
WIRE -48 336 -48 320
WIRE 96 336 96 320
WIRE 144 336 144 320
WIRE -192 384 -192 368
WIRE -160 384 -192 384
WIRE -160 400 -160 384
WIRE -256 432 -256 336
WIRE -192 432 -192 384
WIRE -192 432 -256 432
WIRE -48 432 -48 400
WIRE -48 432 -192 432
WIRE 96 432 96 400
WIRE 96 432 -48 432
WIRE 144 432 144 416
WIRE 144 432 96 432
WIRE 208 432 208 320
WIRE 208 432 144 432
WIRE 272 432 272 384
WIRE 272 432 208 432
FLAG -160 400 0
SYMBOL cap -128 240 R0
SYMATTR InstName C1
SYMATTR Value 33p
SYMBOL cap -64 336 R0
WINDOW 0 -40 13 Left 0
WINDOW 3 -46 57 Left 0
SYMATTR InstName C2
SYMATTR Value 18p
SYMBOL Misc\\xtal -240 336 R180
WINDOW 0 -17 73 Bottom 0
WINDOW 3 46 -15 Invisible 0
SYMATTR InstName Xtal1
SYMATTR Value 100f
SYMATTR SpiceLine Rser=5 Lser=2m5 Cpar=1p5
SYMBOL res -208 272 R0
WINDOW 0 40 45 Left 0
WINDOW 3 31 87 Left 0
SYMATTR InstName R1
SYMATTR Value 470K
SYMATTR SpiceLine tol=1 pwr=0.1
SYMBOL voltage 272 288 R0
WINDOW 3 -19 59 Left 0
WINDOW 123 0 0 Left 0
SYMATTR Value 370
SYMATTR InstName V1
SYMATTR SpiceLine Rser=10 Cpar=50u
SYMBOL voltage 208 224 R0
WINDOW 3 -19 59 Left 0
WINDOW 123 0 0 Left 0
SYMATTR Value 150
SYMATTR InstName V2
SYMATTR SpiceLine Rser=1 Cpar=10u
SYMBOL ind 0 80 R270
WINDOW 0 18 -3 VTop 0
WINDOW 3 45 128 VBottom 0
SYMATTR InstName L1
SYMATTR Value 100µ
SYMATTR SpiceLine Ipk=0.5 Rser=0.1 Rpar=0 Cpar=0 mfg="Hurricane" pn="HL-8126"
SYMBOL res 144 112 R90
WINDOW 0 15 122 VBottom 0
WINDOW 3 -16 14 VTop 0
SYMATTR InstName R2
SYMATTR Value 100
SYMATTR SpiceLine tol=1 pwr=0.1
SYMBOL ind 256 96 R0
SYMATTR InstName L2
SYMATTR Value 4µ7
SYMATTR SpiceLine Ipk=1.5 Rser=1.3 Rpar=45000 Cpar=220f mfg="Gowanda" pn="894AT1004V"
SYMBOL ind -32 336 R270
WINDOW 0 48 45 VRight 0
WINDOW 3 -13 31 VRight 0
SYMATTR InstName L3
SYMATTR Value 2m5
SYMATTR SpiceLine Ipk=1.5 Rser=1.3 Rpar=45000 Cpar=220f mfg="Gowanda" pn="894AT1004V"
SYMBOL cap 80 336 R0
WINDOW 0 24 10 Left 0
WINDOW 3 21 52 Left 0
SYMATTR InstName C3
SYMATTR Value 10n
SYMBOL res 128 320 R0
WINDOW 0 40 45 Left 0
WINDOW 3 31 87 Left 0
SYMATTR InstName R3
SYMATTR Value 390
SYMATTR SpiceLine tol=1 pwr=0.1
SYMBOL Valve\\Tetrode -16 208 R0
WINDOW 0 57 -40 Left 0
WINDOW 38 95 -14 Center 0
SYMATTR InstName U1
SYMATTR SpiceModel 6DQ6A
TEXT -256 168 Left 0 !.tran 10u
TEXT -240 120 Left 0 !.options trtol=2
