Version 4
SHEET 1 880 680
WIRE -432 144 -464 144
WIRE -384 144 -432 144
WIRE -272 144 -384 144
WIRE 80 144 -272 144
WIRE 208 144 160 144
WIRE 368 144 208 144
WIRE -272 176 -272 144
WIRE -208 176 -272 176
WIRE -80 176 -128 176
WIRE -48 176 -80 176
WIRE 48 176 16 176
WIRE 64 176 48 176
WIRE 96 176 64 176
WIRE 208 176 208 144
WIRE 368 176 368 144
WIRE -384 192 -384 144
WIRE 64 192 64 176
WIRE -96 208 -304 208
WIRE -48 208 -96 208
WIRE -16 208 -48 208
WIRE 48 208 48 176
WIRE 48 208 -16 208
WIRE -304 224 -304 208
WIRE -48 224 -48 208
WIRE -16 224 -16 208
WIRE -208 240 -224 240
WIRE -96 240 -96 208
WIRE -96 240 -128 240
WIRE 272 240 240 240
WIRE -224 272 -224 240
WIRE -224 272 -240 272
WIRE -176 272 -224 272
WIRE 64 272 48 272
WIRE 112 272 64 272
WIRE 240 272 240 240
WIRE 240 272 192 272
WIRE 368 288 368 240
WIRE 368 288 336 288
WIRE -384 320 -384 272
WIRE -304 320 -320 320
WIRE -48 320 -48 304
WIRE -48 320 -112 320
WIRE -32 320 -48 320
WIRE -16 320 -32 320
WIRE -320 336 -320 320
WIRE -80 336 -80 176
WIRE 96 336 96 176
WIRE 208 336 208 240
WIRE 272 336 208 336
WIRE -32 352 -32 320
WIRE -464 368 -464 144
WIRE -384 368 -384 320
WIRE -176 368 -208 368
WIRE 208 368 208 336
WIRE 256 368 208 368
WIRE 368 368 368 288
WIRE 368 368 336 368
WIRE -208 384 -208 368
WIRE 208 384 208 368
WIRE 368 384 368 368
WIRE -80 416 -80 400
WIRE -80 416 -128 416
WIRE -320 432 -320 416
WIRE -320 432 -336 432
WIRE -128 432 -128 416
WIRE -464 464 -464 448
WIRE -384 464 -384 432
WIRE -384 464 -464 464
WIRE -208 464 -384 464
WIRE -80 464 -80 416
WIRE -80 464 -208 464
WIRE -32 464 -32 432
WIRE -32 464 -80 464
WIRE 96 464 96 400
WIRE 96 464 -32 464
WIRE 208 464 208 448
WIRE 208 464 96 464
WIRE 368 464 368 448
WIRE 368 464 208 464
FLAG -128 432 0
FLAG -384 320 Carga
FLAG -432 144 Fase
SYMBOL pnp 336 240 M0
WINDOW 0 53 23 Left 0
WINDOW 3 22 50 Left 0
SYMATTR InstName Q1
SYMATTR Value BC557C
SYMBOL diode 192 176 R0
WINDOW 3 24 72 Invisible 0
SYMATTR Value 1N914
SYMATTR InstName D1
SYMBOL diode 352 384 R0
WINDOW 3 24 72 Invisible 0
SYMATTR Value 1N914
SYMATTR InstName D2
SYMBOL diode 384 240 R180
WINDOW 0 24 72 Left 0
WINDOW 3 24 0 Invisible 0
SYMATTR InstName D3
SYMATTR Value 1N914
SYMBOL diode 224 448 R180
WINDOW 0 24 72 Left 0
WINDOW 3 24 0 Invisible 0
SYMATTR InstName D4
SYMATTR Value 1N914
SYMBOL res 352 352 R90
WINDOW 0 0 56 VBottom 0
WINDOW 3 32 56 VTop 0
SYMATTR InstName R1
SYMATTR Value 2k7
SYMBOL Miscel\\zener -96 336 R0
WINDOW 0 -25 70 Left 0
WINDOW 3 24 72 Invisible 0
SYMATTR InstName Dz
SYMATTR Value 1N757
SYMBOL res 176 128 R90
WINDOW 0 16 107 VBottom 0
WINDOW 3 -12 5 VTop 0
SYMATTR InstName R2
SYMATTR Value 33k
SYMBOL res -112 160 R90
WINDOW 0 15 107 VBottom 0
WINDOW 3 -13 19 VTop 0
SYMATTR InstName R3
SYMATTR Value 22k
SYMBOL diode 16 160 R90
WINDOW 0 45 66 VBottom 0
WINDOW 3 32 32 Invisible 0
SYMATTR InstName D6
SYMATTR Value 1N914
SYMBOL polcap 80 400 M180
WINDOW 0 26 13 Left 0
WINDOW 3 24 -14 Left 0
SYMATTR InstName C1
SYMATTR Value 220µ
SYMATTR Description Capacitor
SYMATTR Type cap
SYMATTR SpiceLine V=16 Irms=460m Rser=0.16 MTBF=3000 Lser=0 mfg="Nichicon" pn="UPL1C221MPH" type="Al electrolytic" ppPkg=1
SYMBOL Miscel\\npn 48 320 R180
WINDOW 0 24 46 Left 0
WINDOW 3 -31 -6 Left 0
SYMATTR InstName Q2
SYMATTR Value 2N3904
SYMBOL res 80 288 R180
WINDOW 0 36 96 Left 0
WINDOW 3 34 62 Left 0
SYMATTR InstName R4
SYMATTR Value 5k6
SYMBOL res 208 256 R90
WINDOW 0 4 60 VBottom 0
WINDOW 3 38 57 VTop 0
SYMATTR InstName R5
SYMATTR Value 33k
SYMBOL res -32 320 R180
WINDOW 0 -24 66 Left 0
WINDOW 3 -29 21 Left 0
SYMATTR InstName R6
SYMATTR Value 6k8
SYMBOL Miscel\\npn -112 368 R180
WINDOW 0 64 66 Left 0
WINDOW 3 18 47 Left 0
SYMATTR InstName Q3
SYMATTR Value 2N3904
SYMBOL res -192 480 R180
WINDOW 0 39 82 Left 0
WINDOW 3 30 50 Left 0
SYMATTR InstName R7
SYMATTR Value 560
SYMBOL res -112 224 R90
WINDOW 0 15 104 VBottom 0
WINDOW 3 -12 16 VTop 0
SYMATTR InstName R8
SYMATTR Value 4k7
SYMBOL Miscel\\npn -240 320 R180
WINDOW 0 64 73 Left 0
WINDOW 3 17 48 Left 0
SYMATTR InstName Q4
SYMATTR Value 2N3904
SYMBOL res -336 320 R0
SYMATTR InstName R9
SYMATTR Value 100
SYMBOL Miscel\\voltage -464 352 R0
WINDOW 0 -21 58 Left 0
WINDOW 3 -14 -160 VRight 0
WINDOW 123 0 0 Left 0
WINDOW 39 0 0 Left 0
SYMATTR InstName Vca
SYMATTR Value SINE(0 315 50)
SYMBOL Robertugo\\Triac_All -352 368 M0
WINDOW 38 11 15 VLeft 0
SYMATTR SpiceModel L6006L8
SYMATTR InstName U1
SYMBOL res -368 288 R180
WINDOW 0 -65 112 Left 0
WINDOW 3 -41 66 Left 0
SYMATTR InstName RLoad
SYMATTR Value 50
SYMBOL res -48 336 R0
SYMATTR InstName Rctrl
SYMATTR Value 22k
TEXT 264 448 Left 0 !.tran 1
