Version 4
SHEET 1 880 680
WIRE -192 48 -656 48
WIRE -128 48 -192 48
WIRE 0 48 -64 48
WIRE -656 64 -656 48
WIRE -416 96 -608 96
WIRE -240 96 -336 96
WIRE -192 96 -192 48
WIRE -176 96 -192 96
WIRE -96 96 -112 96
WIRE -80 96 -96 96
WIRE 0 96 0 48
WIRE 0 96 -16 96
WIRE -96 128 -96 96
WIRE -96 128 -592 128
WIRE -304 144 -416 144
WIRE -240 144 -240 96
WIRE 0 144 0 96
WIRE 0 144 -240 144
WIRE -656 160 -656 144
WIRE -608 160 -608 96
WIRE -608 160 -656 160
WIRE -304 160 -304 144
WIRE -32 160 -160 160
WIRE 32 160 -32 160
WIRE -160 176 -160 160
WIRE -32 176 -32 160
WIRE -416 224 -416 144
WIRE -304 240 -304 224
WIRE -256 240 -304 240
WIRE -592 256 -592 128
WIRE -560 256 -592 256
WIRE -464 256 -480 256
WIRE -448 256 -464 256
WIRE -256 256 -256 240
WIRE -192 256 -192 96
WIRE -160 256 -160 240
WIRE -160 256 -192 256
WIRE -32 256 -32 240
WIRE 0 256 0 144
WIRE 0 256 -32 256
WIRE -160 272 -160 256
WIRE -32 272 -32 256
WIRE -304 288 -304 240
WIRE -592 336 -592 256
WIRE -528 336 -592 336
WIRE -496 336 -528 336
WIRE -592 352 -592 336
WIRE -464 352 -464 256
WIRE -256 352 -256 336
WIRE -160 352 -160 336
WIRE -160 352 -256 352
WIRE -96 352 -160 352
WIRE -32 352 -32 336
WIRE -32 352 -96 352
WIRE -416 368 -416 288
WIRE -304 368 -304 352
WIRE -304 368 -416 368
WIRE -528 384 -528 336
WIRE -96 384 -96 352
WIRE 32 432 32 160
WIRE 32 432 0 432
WIRE -496 448 -496 336
WIRE -144 448 -496 448
WIRE 0 448 0 432
WIRE -592 480 -592 416
WIRE -528 480 -528 464
WIRE -528 480 -592 480
WIRE -464 480 -464 416
WIRE -464 480 -528 480
WIRE -96 480 -96 448
WIRE -96 480 -464 480
WIRE 32 480 32 432
WIRE 32 480 -96 480
FLAG 0 448 0
SYMBOL diode -176 176 R0
WINDOW 3 24 72 Invisible 0
SYMATTR InstName D1
SYMATTR Value 1N4007
SYMBOL diode -48 176 R0
WINDOW 0 -19 -1 Left 0
WINDOW 3 24 72 Invisible 0
SYMATTR InstName D2
SYMATTR Value 1N4007
SYMBOL diode -176 272 R0
WINDOW 3 24 72 Invisible 0
SYMATTR InstName D3
SYMATTR Value 1N4007
SYMBOL diode -48 272 R0
WINDOW 0 -19 1 Left 0
WINDOW 3 24 72 Invisible 0
SYMATTR InstName D4
SYMATTR Value 1N4007
SYMBOL Robertugo\\Thyr_All -112 384 R0
SYMATTR InstName U1
SYMATTR SpiceModel T106F1
SYMBOL diode -320 160 R0
WINDOW 0 -17 2 Left 0
WINDOW 3 24 72 Invisible 0
SYMATTR InstName D5
SYMATTR Value 1N4007
SYMBOL diode -320 288 R0
WINDOW 0 -15 63 Left 0
WINDOW 3 24 72 Invisible 0
SYMATTR InstName D6
SYMATTR Value 1N4007
SYMBOL Robertugo\\Pote -432 192 R0
SYMATTR InstName P1
SYMATTR Value Rt=47k
SYMBOL res -464 240 R90
WINDOW 0 0 56 VBottom 0
WINDOW 3 32 56 VTop 0
SYMATTR InstName R2
SYMATTR Value 270k
SYMBOL polcap -480 352 R0
WINDOW 3 24 64 Left 0
SYMATTR InstName C1
SYMATTR Value 220µ
SYMATTR Description Capacitor
SYMATTR Type cap
SYMATTR SpiceLine V=100 Irms=590m Rser=0.1 MTBF=2000 Lser=0 mfg="Nichicon" pn="UPR2A221MRH" type="Al electrolytic" ppPkg=1
SYMBOL cap -608 352 R0
WINDOW 3 22 52 Left 0
SYMATTR InstName C2
SYMATTR Value 1.2µ
SYMATTR SpiceLine V=100 Irms=4.58 Rser=0.025 MTBF=0 Lser=0 mfg="KEMET" pn="C2225C105K1RAC" type="X7R" ppPkg=1
SYMBOL res -544 368 R0
WINDOW 0 -34 71 Left 0
WINDOW 3 -33 95 Left 0
SYMATTR InstName R3
SYMATTR Value 1k
SYMBOL res -272 240 R0
WINDOW 0 35 51 Left 0
WINDOW 3 34 87 Left 0
SYMATTR InstName R1
SYMATTR Value 470
SYMBOL diode -112 80 R90
WINDOW 0 0 32 VBottom 0
WINDOW 3 32 32 Invisible 0
SYMATTR InstName D7
SYMATTR Value 1N4007
SYMBOL diode -80 80 M90
WINDOW 0 0 32 VBottom 0
WINDOW 3 32 32 Invisible 0
SYMATTR InstName D8
SYMATTR Value 1N4007
SYMBOL cap -64 32 R90
WINDOW 0 16 57 VBottom 0
WINDOW 3 -12 -4 VTop 0
SYMATTR InstName C3
SYMATTR Value 100n
SYMBOL voltage -656 48 R0
WINDOW 0 -20 60 Left 0
WINDOW 3 7 109 Invisible 0
WINDOW 123 0 0 Left 0
SYMATTR InstName Vca
SYMATTR Value SINE(0 310 50)
SYMATTR SpiceLine Rser=1
SYMBOL res -320 80 R90
WINDOW 0 17 105 VBottom 0
WINDOW 3 -12 7 VTop 0
SYMATTR InstName RL
SYMATTR Value 220
TEXT -306 426 Left 0 !.tran 20
