Version 4
SHEET 1 880 680
WIRE -128 192 -224 192
WIRE 16 192 -128 192
WIRE 240 192 144 192
WIRE 352 192 240 192
WIRE 432 192 352 192
WIRE 496 192 432 192
WIRE 240 208 240 192
WIRE 352 208 352 192
WIRE 496 208 496 192
WIRE -128 224 -128 192
WIRE -224 240 -224 192
WIRE -128 304 -128 288
WIRE -128 304 -160 304
WIRE -160 320 -160 304
WIRE -16 320 -48 320
WIRE 80 320 80 240
WIRE 80 320 48 320
WIRE 128 320 80 320
WIRE 240 320 240 272
WIRE 240 320 208 320
WIRE 256 320 240 320
WIRE 352 320 352 272
WIRE 352 320 336 320
WIRE 384 320 352 320
WIRE 496 320 496 288
WIRE 496 320 464 320
WIRE -224 352 -224 320
WIRE -128 352 -128 304
WIRE -128 352 -224 352
WIRE 496 352 496 320
WIRE 496 352 -128 352
FLAG -160 320 0
FLAG 432 192 Out
FLAG -48 320 Out
SYMBOL Robertugo\\reg3all 144 208 R0
SYMATTR InstName U1
SYMATTR SpiceModel LM317Psp
SYMBOL polcap -144 224 R0
WINDOW 3 24 64 Left 0
SYMATTR Value 2.2u
SYMATTR InstName C0
SYMATTR Description Capacitor
SYMATTR Type cap
SYMATTR SpiceLine V=50 Irms=54m Rser=3 MTBF=2000 Lser=0 mfg="Nichicon" pn="UPL1H2R2MAH" type="Al electrolytic" ppPkg=1
SYMBOL voltage -224 224 R0
WINDOW 3 -24 59 Left 0
SYMATTR Value 13.2
SYMATTR InstName V+
SYMBOL res 224 304 R90
WINDOW 0 45 107 VBottom 0
WINDOW 3 16 4 VTop 0
SYMATTR InstName R1
SYMATTR Value 22k
SYMBOL polcap 224 208 R0
WINDOW 3 24 64 Left 0
SYMATTR Value 4.7u
SYMATTR InstName C2
SYMATTR Description Capacitor
SYMATTR Type cap
SYMATTR SpiceLine V=50 Irms=170m Rser=1 MTBF=5000 Lser=0 mfg="Nichicon" pn="UPG1H4R7MPH" type="Al electrolytic" ppPkg=1
SYMBOL res 480 192 R0
WINDOW 0 -66 35 Left 0
WINDOW 3 -35 72 Left 0
SYMATTR InstName RLamp
SYMATTR Value 6
SYMBOL polcap -16 336 R270
WINDOW 0 17 -2 VTop 0
WINDOW 3 44 68 VBottom 0
SYMATTR InstName C1
SYMATTR Value 4.7u
SYMATTR Description Capacitor
SYMATTR Type cap
SYMATTR SpiceLine V=50 Irms=170m Rser=1 MTBF=5000 Lser=0 mfg="Nichicon" pn="UPG1H4R7MPH" type="Al electrolytic" ppPkg=1
SYMBOL res 352 304 R90
WINDOW 0 44 88 VBottom 0
WINDOW 3 16 4 VTop 0
SYMATTR InstName R2
SYMATTR Value 22k
SYMBOL res 480 304 R90
WINDOW 0 44 91 VBottom 0
WINDOW 3 16 4 VTop 0
SYMATTR InstName R3
SYMATTR Value 22k
SYMBOL polcap 336 208 R0
WINDOW 3 24 64 Left 0
SYMATTR Value 4.7u
SYMATTR InstName C3
SYMATTR Description Capacitor
SYMATTR Type cap
SYMATTR SpiceLine V=50 Irms=170m Rser=1 MTBF=5000 Lser=0 mfg="Nichicon" pn="UPG1H4R7MPH" type="Al electrolytic" ppPkg=1
TEXT -216 152 Left 0 !.tran 2
