Version 4
SHEET 1 1184 680
WIRE 432 -16 48 -16
WIRE 48 32 48 -16
WIRE 336 32 320 32
WIRE 432 32 432 -16
WIRE 432 32 416 32
WIRE 320 64 320 32
WIRE 272 80 160 80
WIRE 432 80 432 32
WIRE 480 80 432 80
WIRE 432 96 432 80
WIRE 480 96 480 80
WIRE 48 128 48 112
WIRE 272 128 48 128
WIRE 320 160 320 144
WIRE 384 160 320 160
WIRE 160 176 160 80
WIRE 480 176 480 160
WIRE 48 208 48 128
WIRE 80 208 48 208
WIRE 80 224 80 208
WIRE 48 272 48 208
WIRE 160 272 160 256
WIRE 160 272 48 272
WIRE 208 272 160 272
WIRE 352 272 288 272
WIRE 432 272 432 160
WIRE 432 272 352 272
WIRE 480 272 480 256
WIRE 480 272 432 272
FLAG 80 224 0
FLAG 352 272 Carga
SYMBOL voltage 48 16 R0
WINDOW 3 -18 90 VRight 0
WINDOW 123 0 0 Left 0
WINDOW 39 0 0 Left 0
WINDOW 0 -17 58 Left 0
SYMATTR Value SINE(0 315 50)
SYMATTR InstName Vac
SYMBOL res 320 48 R270
WINDOW 0 29 51 VTop 0
WINDOW 3 0 56 VBottom 0
SYMATTR InstName R1
SYMATTR Value 100
SYMBOL Triac_All 400 96 R0
WINDOW 0 -9 43 Right 0
WINDOW 38 14 165 VLeft 0
SYMATTR InstName U4
SYMATTR SpiceModel L6008L6
SYMBOL res 464 160 R0
WINDOW 0 27 49 Left 0
WINDOW 3 21 82 Left 0
SYMATTR InstName R9
SYMATTR Value 220
SYMBOL cap 464 96 R0
SYMATTR InstName C1
SYMATTR Value .1µ
SYMBOL sw 320 160 M180
WINDOW 0 -29 56 Left 0
WINDOW 3 -58 10 Left 0
SYMATTR InstName Scb1
SYMATTR Value Scp
SYMBOL voltage 160 160 R0
WINDOW 3 189 137 Right 0
WINDOW 123 0 0 Left 0
WINDOW 39 0 0 Left 0
WINDOW 0 -26 58 Left 0
SYMATTR Value PULSE(0 1 0 1u 1u 64m 127m)
SYMATTR InstName Vctrl
SYMBOL ind 192 288 R270
WINDOW 0 34 29 VTop 0
WINDOW 3 61 97 VBottom 0
SYMATTR InstName LMot
SYMATTR Value 125m
SYMATTR SpiceLine Ipk=10 Rser=30 Rpar=50k Cpar=10p
TEXT 56 8 Left 0 !.tran 1
TEXT 48 -32 Left 0 !.model Scp Sw(Ron=1 Roff=1g Vt=.5)
