Version 4
SHEET 1 892 944
WIRE 272 -240 -16 -240
WIRE 704 -240 432 -240
WIRE 272 -176 272 -240
WIRE 704 -176 704 -240
WIRE -176 80 -176 16
WIRE 272 80 272 16
WIRE 704 80 704 16
WIRE -176 336 -176 272
WIRE 272 336 272 272
WIRE 704 336 704 272
WIRE -176 592 -176 528
WIRE 272 592 272 528
WIRE 704 592 704 528
WIRE -16 784 -16 -240
WIRE -16 784 -176 784
WIRE 432 784 432 -240
WIRE 432 784 272 784
FLAG 176 80 VDD
FLAG 128 -96 BA7
IOPIN 128 -96 In
FLAG 128 -64 BB7
IOPIN 128 -64 In
FLAG 128 160 BA6
IOPIN 128 160 In
FLAG 128 192 BB6
IOPIN 128 192 In
FLAG 320 -80 S7
IOPIN 320 -80 Out
FLAG 320 176 S6
IOPIN 320 176 Out
FLAG 176 592 VDD
FLAG 128 416 BA5
IOPIN 128 416 In
FLAG 128 448 BB5
IOPIN 128 448 In
FLAG 128 672 BA4
IOPIN 128 672 In
FLAG 128 704 BB4
IOPIN 128 704 In
FLAG 320 432 S5
IOPIN 320 432 Out
FLAG 320 688 S4
IOPIN 320 688 Out
FLAG 176 336 VDD
FLAG 608 80 VDD
FLAG 560 -96 BA3
IOPIN 560 -96 In
FLAG 560 -64 BB3
IOPIN 560 -64 In
FLAG 560 160 BA2
IOPIN 560 160 In
FLAG 560 192 BB2
IOPIN 560 192 In
FLAG 752 -80 S3
IOPIN 752 -80 Out
FLAG 752 176 S2
IOPIN 752 176 Out
FLAG 608 592 VDD
FLAG 560 416 BA1
IOPIN 560 416 In
FLAG 560 448 BB1
IOPIN 560 448 In
FLAG 560 672 BA0
IOPIN 560 672 In
FLAG 560 704 BB0
IOPIN 560 704 In
FLAG 752 432 S1
IOPIN 752 432 Out
FLAG 752 688 S0
IOPIN 752 688 Out
FLAG 608 336 VDD
FLAG 704 784 Cin
IOPIN 704 784 In
FLAG 608 -176 VDD
FLAG -272 -176 VDD
IOPIN -272 -176 In
FLAG -272 80 VDD
FLAG -320 -96 BA11
IOPIN -320 -96 In
FLAG -320 -64 BB11
IOPIN -320 -64 In
FLAG -320 160 BA10
IOPIN -320 160 In
FLAG -320 192 BB10
IOPIN -320 192 In
FLAG -128 -80 S11
IOPIN -128 -80 Out
FLAG -128 176 S10
IOPIN -128 176 Out
FLAG -176 -176 Cout
IOPIN -176 -176 Out
FLAG -272 592 VDD
FLAG -320 416 BA9
IOPIN -320 416 In
FLAG -320 448 BB9
IOPIN -320 448 In
FLAG -320 672 BA8
IOPIN -320 672 In
FLAG -320 704 BB8
IOPIN -320 704 In
FLAG -128 432 S9
IOPIN -128 432 Out
FLAG -128 688 S8
IOPIN -128 688 Out
FLAG -272 336 VDD
FLAG 176 -176 VDD
SYMBOL Adderbit 144 0 R0
SYMATTR InstName X1
SYMBOL Adderbit 144 256 R0
SYMATTR InstName X2
SYMBOL Adderbit 144 512 R0
SYMATTR InstName X3
SYMBOL Adderbit 144 768 R0
SYMATTR InstName X4
SYMBOL Adderbit 576 0 R0
SYMATTR InstName X5
SYMBOL Adderbit 576 256 R0
SYMATTR InstName X6
SYMBOL Adderbit 576 512 R0
SYMATTR InstName X7
SYMBOL Adderbit 576 768 R0
SYMATTR InstName X8
SYMBOL Adderbit -304 0 R0
SYMATTR InstName X9
SYMBOL Adderbit -304 256 R0
SYMATTR InstName X10
SYMBOL Adderbit -304 512 R0
SYMATTR InstName X11
SYMBOL Adderbit -304 768 R0
SYMATTR InstName X12
