*******  X1G  ********************
***   adds 1Gohm  to node ZERO ****
*********************************
.subckt X1G 1
R1 1 0 1G
.ends X1G