Version 4
SHEET 1 1132 1348
WIRE -752 -16 -896 -16
WIRE -576 -16 -672 -16
WIRE -384 -16 -576 -16
WIRE -176 -16 -384 -16
WIRE -384 80 -384 -16
WIRE -896 96 -896 -16
WIRE -576 96 -576 -16
WIRE -576 176 -576 160
WIRE -384 176 -384 160
WIRE -384 176 -576 176
WIRE -896 208 -896 176
WIRE -576 224 -576 176
FLAG -576 224 0
FLAG -896 208 0
FLAG -176 -16 out
IOPIN -176 -16 Out
SYMBOL l_sens -400 64 R0
SYMATTR InstName U4
SYMATTR SpiceLine2 Sequence=3
SYMBOL c_sens -592 96 R0
SYMATTR InstName U3
SYMATTR SpiceLine2 Sequence=2
SYMATTR SpiceLine C=1u Tol=5
SYMBOL r_sens -656 -32 R90
WINDOW 0 6 56 VBottom 0
WINDOW 40 -96 58 VTop 0
WINDOW 39 -60 58 VTop 0
SYMATTR InstName U13
SYMBOL voltage -896 80 R0
WINDOW 123 24 130 Left 0
WINDOW 39 0 0 Left 0
SYMATTR Value2 AC 1
SYMATTR InstName V1
SYMATTR Value 1
TEXT 240 56 Left 0 !.step param run 0 3 1
TEXT 240 88 Left 0 !.ac oct 100 10000 20000
TEXT 152 -336 Left 0 ;Sensitivity analysis toolbox.\nsensitivity.lib provides subcircuits R_sens,\nC_sens,L_sens,V_sens for sensitivity analysis.\nSymbols R_sens.asy,C_sens.asy,L_sens.asy,\nand V_sens.asy are provided for these subcircuits.\nSymbols automaticly include sensitivity.lib when placed.\nWhen the parameter run is stepped, each subcircit \ncompares it's sequence parameter to rhe run parameter,\nif the values are equal, the nominal value of the subcircuit is \nincreased by Tol %.\nPlot the node of interest vs run.\nrun = 0 all values are nominal.\nAll componants require a unique sequence value.
TEXT 240 32 Left 0 !.step param SIGN list -1 1
TEXT 160 144 Left 0 ;parameter SIGN is the sign of the value perturbation.\nProbe - calculation- results are connected by use of\nglobal nets defined within the subcircuits.\nDelta companant values are measured by use of \nglobal nets multiplexed between run values.\n($G_rdif , $G_cdif, $G_ldif, $G_vdif)
