Version 4
SHEET 1 880 932
FLAG -592 112 VDD
FLAG -592 272 Clk
FLAG -704 192 D6
IOPIN -704 192 In
FLAG -480 160 Q6
IOPIN -480 160 Out
FLAG -480 224 Q6i
IOPIN -480 224 Out
FLAG -592 -176 VDD
FLAG -592 -16 Clk
FLAG -704 -96 D7
IOPIN -704 -96 In
FLAG -480 -128 Q7
IOPIN -480 -128 Out
FLAG -480 -64 Q7i
IOPIN -480 -64 Out
FLAG -944 112 VDD
FLAG -944 272 Clk
FLAG -1056 192 D2
IOPIN -1056 192 In
FLAG -832 160 Q2
IOPIN -832 160 Out
FLAG -832 224 Q2i
IOPIN -832 224 Out
FLAG -944 -176 VDD
IOPIN -944 -176 In
FLAG -944 -16 Clk
FLAG -1056 -96 D3
IOPIN -1056 -96 In
FLAG -832 -128 Q3
IOPIN -832 -128 Out
FLAG -832 -64 Q3i
IOPIN -832 -64 Out
FLAG -592 672 VDD
FLAG -592 832 Clk
FLAG -704 752 D4
IOPIN -704 752 In
FLAG -480 720 Q4
IOPIN -480 720 Out
FLAG -480 784 Q4i
IOPIN -480 784 Out
FLAG -592 384 VDD
FLAG -592 544 Clk
FLAG -704 464 D5
IOPIN -704 464 In
FLAG -480 432 Q5
IOPIN -480 432 Out
FLAG -480 496 Q5i
IOPIN -480 496 Out
FLAG -944 672 VDD
FLAG -944 832 Clk
IOPIN -944 832 In
FLAG -1056 752 D0
IOPIN -1056 752 In
FLAG -832 720 Q0
IOPIN -832 720 Out
FLAG -832 784 Q0i
IOPIN -832 784 Out
FLAG -944 384 VDD
FLAG -944 544 Clk
FLAG -1056 464 D1
IOPIN -1056 464 In
FLAG -832 432 Q1
IOPIN -832 432 Out
FLAG -832 496 Q1i
IOPIN -832 496 Out
SYMBOL DFF -672 240 R0
SYMATTR InstName X9
SYMBOL DFF -672 -48 R0
SYMATTR InstName X10
SYMBOL DFF -1024 240 R0
SYMATTR InstName X11
SYMBOL DFF -1024 -48 R0
SYMATTR InstName X12
SYMBOL DFF -672 800 R0
SYMATTR InstName X13
SYMBOL DFF -672 512 R0
SYMATTR InstName X14
SYMBOL DFF -1024 800 R0
SYMATTR InstName X15
SYMBOL DFF -1024 512 R0
SYMATTR InstName X16
