Version 4
SHEET 1 880 680
WIRE -944 304 -944 240
WIRE -944 416 -944 384
WIRE -832 416 -944 416
WIRE -832 432 -832 416
WIRE -832 528 -832 512
WIRE -784 240 -944 240
WIRE -784 304 -784 240
WIRE -768 304 -784 304
WIRE -768 320 -768 304
WIRE -768 416 -832 416
WIRE -768 416 -768 400
WIRE -608 256 -608 240
WIRE -608 368 -608 336
WIRE -608 400 -608 368
WIRE -608 496 -608 480
WIRE -560 240 -608 240
WIRE -560 496 -608 496
WIRE -416 240 -496 240
WIRE -416 496 -496 496
WIRE -416 496 -416 240
WIRE -320 240 -416 240
WIRE -272 240 -320 240
WIRE -272 272 -272 240
WIRE -272 368 -608 368
WIRE -272 368 -272 336
WIRE -272 528 -832 528
WIRE -272 528 -272 368
WIRE -160 240 -272 240
WIRE -160 352 -160 240
WIRE -160 528 -272 528
WIRE -160 528 -160 416
WIRE -32 240 -160 240
WIRE 96 384 96 336
WIRE 96 416 96 384
WIRE 96 528 -160 528
WIRE 96 528 96 480
WIRE 96 544 96 528
WIRE 240 528 96 528
WIRE 240 528 240 448
WIRE 272 448 240 448
WIRE 304 240 224 240
WIRE 304 272 304 240
WIRE 304 384 96 384
WIRE 304 384 304 352
WIRE 304 416 304 384
WIRE 304 528 240 528
WIRE 304 528 304 480
WIRE 384 240 304 240
WIRE 448 240 384 240
WIRE 448 384 448 240
WIRE 448 528 304 528
WIRE 448 528 448 448
WIRE 560 240 448 240
WIRE 560 336 560 240
WIRE 560 528 448 528
WIRE 560 528 560 416
FLAG 96 544 0
FLAG -320 240 RectOut
FLAG 384 240 Out
SYMBOL PowerProducts\\LT1083 96 240 R0
SYMATTR InstName U1
SYMBOL res 288 256 R0
SYMATTR InstName R1
SYMATTR Value 100
SYMBOL cap 80 416 R0
SYMATTR InstName C
SYMATTR Value 1µ
SYMBOL Robertugo\\pote 288 512 M180
SYMATTR InstName U2
SYMATTR Value Rt=2K5
SYMATTR Value2 Set=.93
SYMBOL ind2 -592 352 R180
WINDOW 0 36 80 Left 0
WINDOW 3 36 40 Left 0
SYMATTR InstName L1
SYMATTR Value 8m
SYMBOL ind2 -592 496 R180
WINDOW 0 36 80 Left 0
WINDOW 3 36 40 Left 0
SYMATTR InstName L2
SYMATTR Value 8m
SYMBOL ind2 -784 416 M180
WINDOW 0 36 80 Left 0
WINDOW 3 36 40 Left 0
SYMATTR InstName L3
SYMATTR Value .5
SYMATTR SpiceLine Rser=1
SYMBOL voltage -944 288 R0
WINDOW 0 -15 58 Left 0
WINDOW 3 5 108 Left 0
WINDOW 123 0 0 Left 0
WINDOW 39 0 0 Left 0
SYMATTR InstName V1
SYMATTR Value SINE(0 312 50)
SYMBOL res -848 416 R0
SYMATTR InstName R2
SYMATTR Value 1e9
SYMBOL diode -560 256 R270
WINDOW 0 16 -9 VTop 0
WINDOW 3 43 99 VBottom 0
SYMATTR InstName D1
SYMATTR Value MBR745
SYMBOL diode -560 512 R270
WINDOW 0 18 -5 VTop 0
WINDOW 3 45 94 VBottom 0
SYMATTR InstName D2
SYMATTR Value MBR745
SYMBOL res 544 320 R0
WINDOW 0 -28 28 Left 0
WINDOW 3 -25 65 Left 0
SYMATTR InstName RL
SYMATTR Value 4
SYMBOL polcap -288 272 R0
WINDOW 3 24 64 Left 0
SYMATTR InstName Cf
SYMATTR Value 10000µ
SYMATTR Description Capacitor
SYMATTR Type cap
SYMATTR SpiceLine V=10 Irms=3 Rser=0.017 MTBF=2000 Lser=0 mfg="Panasonic" pn="ECA1AFQ103" type="Al electrolytic" ppPkg=1
SYMBOL cap -176 352 R0
SYMATTR InstName C1
SYMATTR Value 100n
SYMBOL polcap 432 384 R0
WINDOW 3 24 64 Left 0
SYMATTR InstName Cf2
SYMATTR Value 100µ
SYMATTR Description Capacitor
SYMATTR Type cap
SYMATTR SpiceLine V=50 Irms=620m Rser=0.14 MTBF=3000 Lser=0 mfg="Nichicon" pn="UPL1H101MPH" type="Al electrolytic" ppPkg=1
TEXT -696 256 VRight 0 !K1 L1 L2 L3 1
TEXT -946 218 Left 0 !.tran 0 1 0 200u
