Version 4
SHEET 1 880 680
WIRE -48 48 -112 48
WIRE -16 48 -48 48
WIRE 96 48 64 48
WIRE 128 48 96 48
WIRE 240 48 224 48
WIRE 320 48 240 48
WIRE 384 48 320 48
WIRE 96 80 96 48
WIRE -112 96 -112 48
WIRE 320 96 320 48
WIRE -48 144 -48 48
WIRE 48 144 -48 144
WIRE 176 144 176 112
WIRE 176 144 144 144
WIRE -48 160 -48 144
WIRE 176 160 176 144
WIRE 384 176 384 48
WIRE -112 208 -112 176
WIRE 240 224 240 48
WIRE 256 224 240 224
WIRE -48 256 -48 240
WIRE -48 256 -112 256
WIRE -48 272 -48 256
WIRE 384 272 384 256
WIRE -112 288 -112 256
WIRE 320 288 320 176
WIRE 288 320 16 320
WIRE 176 336 176 240
WIRE -48 384 -48 368
WIRE 112 384 -48 384
WIRE -48 400 -48 384
WIRE 240 400 240 224
WIRE 320 400 320 352
WIRE 176 464 176 432
WIRE 176 464 144 464
WIRE 144 480 144 464
WIRE -112 496 -112 352
WIRE -48 496 -48 480
WIRE -48 496 -112 496
WIRE 176 496 176 464
WIRE 176 496 -48 496
WIRE 240 496 240 464
WIRE 240 496 176 496
WIRE 320 496 320 480
WIRE 320 496 240 496
FLAG 144 480 0
FLAG -112 208 0
FLAG 384 272 0
FLAG 256 224 Out
IOPIN 256 224 Out
SYMBOL npn2 112 336 R0
WINDOW 0 -1 4 Left 0
WINDOW 3 67 7 VRight 0
SYMATTR InstName Q2
SYMATTR Value BC547A
SYMBOL pnp2 224 112 M270
WINDOW 0 34 62 VLeft 0
WINDOW 3 57 80 VLeft 0
SYMATTR InstName Q4
SYMATTR Value BD440
SYMBOL pnp2 144 80 R90
WINDOW 0 34 62 VLeft 0
WINDOW 3 62 88 VLeft 0
SYMATTR InstName Q3
SYMATTR Value BC557A
SYMBOL pnp2 16 368 R180
WINDOW 0 34 62 VLeft 0
WINDOW 3 60 83 VLeft 0
SYMATTR InstName Q1
SYMATTR Value BC557A
SYMBOL res 80 32 R90
WINDOW 0 16 103 VBottom 0
WINDOW 3 -12 16 VTop 0
SYMATTR InstName R6
SYMATTR Value 1.2
SYMBOL res -64 144 R0
SYMATTR InstName R1
SYMATTR Value 1k
SYMBOL LED -128 288 R0
WINDOW 3 -19 -26 VRight 0
SYMATTR InstName D1
SYMATTR Value NSCW100
SYMATTR Description Diode
SYMATTR Type diode
SYMBOL res -64 384 R0
SYMATTR InstName R2
SYMATTR Value 10k
SYMBOL res 160 144 R0
WINDOW 0 23 50 Left 0
WINDOW 3 21 86 Left 0
SYMATTR InstName R3
SYMATTR Value 470
SYMBOL polcap 224 400 R0
WINDOW 3 24 64 Left 0
SYMATTR InstName C1
SYMATTR Value 10u
SYMATTR Description Capacitor
SYMATTR Type cap
SYMATTR SpiceLine V=63 Irms=170m Rser=1 Lser=0 mfg="Nichicon" pn="UPG1J100MPH" type="Al electrolytic"
SYMBOL res 304 80 R0
SYMATTR InstName R4
SYMATTR Value 1k2
SYMBOL res 304 384 R0
SYMATTR InstName R5
SYMATTR Value 560
SYMBOL Robertugo\\Pote 304 256 R0
SYMATTR InstName U1
SYMATTR Value Rt=500
SYMATTR Value2 Set=1
SYMBOL voltage -112 80 R0
SYMATTR InstName V+
SYMATTR Value 6
SYMBOL res 368 160 R0
WINDOW 0 -11 30 Left 0
WINDOW 3 -11 65 Left 0
SYMATTR InstName RL
SYMATTR Value 10
TEXT -162 506 Left 0 !.tran 10m
