Version 4
SHEET 1 1056 680
WIRE -608 48 -672 48
WIRE -576 48 -608 48
WIRE -480 48 -512 48
WIRE -416 48 -480 48
WIRE -288 48 -416 48
WIRE -144 48 -288 48
WIRE -32 48 -144 48
WIRE 48 48 -32 48
WIRE 64 48 48 48
WIRE -288 64 -288 48
WIRE -144 64 -144 48
WIRE -672 128 -672 48
WIRE -880 160 -928 160
WIRE -752 160 -800 160
WIRE -608 160 -608 48
WIRE -576 160 -608 160
WIRE -496 160 -512 160
WIRE -224 176 -512 176
WIRE -144 176 -144 144
WIRE -928 192 -928 160
WIRE -288 192 -288 144
WIRE -240 192 -288 192
WIRE -752 208 -752 160
WIRE -176 208 -368 208
WIRE -368 224 -368 208
WIRE -672 240 -672 208
WIRE -624 240 -672 240
WIRE -512 240 -512 176
WIRE -512 240 -560 240
WIRE -288 256 -288 192
WIRE -672 272 -672 240
WIRE 48 272 48 48
WIRE -32 288 -32 48
WIRE -368 304 -368 288
WIRE -352 304 -368 304
WIRE -928 320 -928 272
WIRE -816 320 -928 320
WIRE -752 320 -752 288
WIRE -752 320 -816 320
WIRE -576 320 -608 320
WIRE -480 320 -480 48
WIRE -480 320 -512 320
WIRE -368 320 -368 304
WIRE -816 336 -816 320
WIRE -416 336 -416 48
WIRE -224 384 -224 176
WIRE -144 384 -144 240
WIRE -144 384 -224 384
WIRE -240 400 -240 192
WIRE 48 400 48 352
WIRE 48 400 16 400
WIRE 16 416 16 400
WIRE -816 432 -816 416
WIRE -672 448 -672 352
WIRE -608 448 -608 320
WIRE -608 448 -672 448
WIRE -576 448 -608 448
WIRE -496 448 -496 160
WIRE -496 448 -512 448
WIRE -416 448 -416 400
WIRE -416 448 -496 448
WIRE -368 448 -368 400
WIRE -368 448 -416 448
WIRE -288 448 -288 352
WIRE -288 448 -368 448
WIRE -240 448 -288 448
WIRE -144 448 -144 384
WIRE -144 448 -176 448
WIRE -32 448 -32 352
WIRE -32 448 -144 448
WIRE 48 448 48 400
WIRE 48 448 -32 448
FLAG 64 48 Out
IOPIN 64 48 Out
FLAG -816 432 0
FLAG 16 416 0
SYMBOL diode -576 64 R270
WINDOW 0 16 -2 VTop 0
WINDOW 3 -4 54 VBottom 0
SYMATTR InstName D1
SYMATTR Value MR760
SYMBOL diode -512 176 M270
WINDOW 0 16 69 VTop 0
WINDOW 3 64 10 Invisible 0
SYMATTR InstName D2
SYMATTR Value MR760
SYMBOL diode -576 336 R270
WINDOW 0 16 -9 VTop 0
WINDOW 3 66 52 Invisible 0
SYMATTR InstName D3
SYMATTR Value MR760
SYMBOL diode -512 464 M270
WINDOW 0 16 73 VTop 0
WINDOW 3 67 11 Invisible 0
SYMATTR InstName D4
SYMATTR Value MR760
SYMBOL ind2 -656 224 R180
WINDOW 0 -43 70 Left 0
WINDOW 3 -47 44 Left 0
SYMATTR InstName Ls1
SYMATTR Value 1m
SYMBOL ind2 -656 368 R180
WINDOW 0 -45 84 Left 0
WINDOW 3 -49 56 Left 0
SYMATTR InstName Ls2
SYMATTR Value 1m
SYMBOL ind2 -768 304 M180
WINDOW 0 -36 80 Left 0
WINDOW 3 -25 53 Left 0
SYMATTR InstName Lp
SYMATTR Value 1
SYMATTR SpiceLine Rser=1
SYMBOL res -832 320 R0
WINDOW 0 32 48 Left 0
WINDOW 3 33 84 Left 0
SYMATTR InstName Rfuga
SYMATTR Value 1g
SYMBOL voltage -928 176 R0
WINDOW 0 -15 58 Left 0
WINDOW 3 5 108 Left 0
WINDOW 123 0 0 Left 0
WINDOW 39 0 0 Left 0
SYMATTR InstName V1
SYMATTR Value SINE(0 311 50)
SYMBOL res -784 144 R90
WINDOW 0 0 56 VBottom 0
WINDOW 3 32 56 VTop 0
SYMATTR InstName Rfuse
SYMATTR Value 0.1
SYMBOL res 32 256 R0
WINDOW 0 -26 28 Left 0
WINDOW 3 -36 65 Left 0
SYMATTR InstName RL
SYMATTR Value {val}
SYMBOL diode -560 256 M270
WINDOW 0 16 69 VTop 0
WINDOW 3 64 10 Invisible 0
SYMATTR InstName D5
SYMATTR Value MR760
SYMBOL polcap -48 288 R0
WINDOW 3 -53 64 Left 0
WINDOW 0 -49 36 Left 0
SYMATTR Value 4700u
SYMATTR InstName Cf1
SYMATTR Description Capacitor
SYMATTR Type cap
SYMATTR SpiceLine V=63 Irms=10 Rser=0.017 Lser=0
SYMBOL res -160 48 R0
SYMATTR InstName R1
SYMATTR Value 560
SYMBOL Robertugo\\Pote -160 144 R0
SYMATTR InstName U1
SYMATTR Value Rt=220
SYMATTR Value2 Set=0.53
SYMBOL res -304 48 R0
SYMATTR InstName R3
SYMATTR Value 2k2
SYMBOL npn2 -352 256 R0
WINDOW 0 25 48 Left 0
WINDOW 3 73 4 VRight 0
SYMATTR InstName Q1
SYMATTR Value BC546B
SYMBOL res -384 304 R0
WINDOW 0 23 47 Left 0
WINDOW 3 26 84 Left 0
SYMATTR InstName R4
SYMATTR Value 220
SYMBOL zener -352 288 R180
WINDOW 0 -59 66 Left 0
WINDOW 3 24 0 Invisible 0
SYMATTR InstName Dz4v7
SYMATTR Value 1N750
SYMBOL Thyr&Triac\\Scr_Teccor -176 432 R90
WINDOW 0 -17 17 VRight 0
WINDOW 38 -96 79 Left 0
SYMATTR InstName U2
SYMATTR SpiceModel S6008LS3
SYMBOL polcap -432 336 R0
WINDOW 3 -53 64 Left 0
WINDOW 0 -49 36 Left 0
SYMATTR Value 47u
SYMATTR InstName Cf2
SYMATTR Description Capacitor
SYMATTR Type cap
SYMATTR SpiceLine V=35 Irms=270m Rser=0.34 Lser=0 mfg="Nichicon" pn="UPL1V470MPH" type="Al electrolytic"
TEXT -936 48 Left 0 !.tran .4
TEXT -712 160 VRight 0 !K Lp Ls1 Ls2 1
TEXT -944 80 Left 0 !.step param val 5 10 5
