Version 4
SHEET 1 1056 680
WIRE -80 0 -240 0
WIRE 16 0 -16 0
WIRE 160 0 16 0
WIRE 688 0 160 0
WIRE -496 48 -560 48
WIRE -464 48 -496 48
WIRE -368 48 -400 48
WIRE -240 80 -240 0
WIRE -160 80 -240 80
WIRE 64 80 -160 80
WIRE 160 80 160 0
WIRE 272 80 176 80
WIRE 496 80 400 80
WIRE 688 80 688 0
WIRE 688 80 496 80
WIRE 800 80 688 80
WIRE 864 80 800 80
WIRE 912 80 864 80
WIRE 944 80 912 80
WIRE 16 112 16 0
WIRE 496 112 496 80
WIRE -560 128 -560 48
WIRE 688 128 688 80
WIRE 800 128 800 80
WIRE 864 128 864 80
WIRE -768 160 -816 160
WIRE -640 160 -688 160
WIRE -496 160 -496 48
WIRE -464 160 -496 160
WIRE -384 160 -400 160
WIRE -816 192 -816 160
WIRE -640 208 -640 160
WIRE -320 208 -352 208
WIRE -160 208 -160 80
WIRE -128 208 -160 208
WIRE 112 208 112 144
WIRE 112 208 -48 208
WIRE 176 208 176 80
WIRE 176 208 112 208
WIRE 240 224 224 224
WIRE 336 224 336 128
WIRE 336 224 304 224
WIRE 496 224 496 192
WIRE 496 224 336 224
WIRE 688 224 688 192
WIRE 688 224 496 224
WIRE 944 224 944 80
WIRE -560 240 -560 208
WIRE -320 240 -560 240
WIRE -240 240 -240 80
WIRE -240 240 -256 240
WIRE 704 240 608 240
WIRE 800 240 800 208
WIRE 800 240 784 240
WIRE -160 256 -160 208
WIRE 224 256 224 224
WIRE 224 256 128 256
WIRE 272 256 224 256
WIRE 336 256 336 224
WIRE -560 272 -560 240
WIRE -368 272 -368 48
WIRE -320 272 -368 272
WIRE 608 272 608 240
WIRE 800 272 800 240
WIRE 688 288 688 224
WIRE 16 304 16 192
WIRE 16 304 -48 304
WIRE 64 304 16 304
WIRE 576 304 400 304
WIRE -816 320 -816 272
WIRE -704 320 -816 320
WIRE -640 320 -640 288
WIRE -640 320 -704 320
WIRE -464 320 -496 320
WIRE -368 320 -368 272
WIRE -368 320 -400 320
WIRE 224 320 224 256
WIRE -352 336 -352 208
WIRE -704 352 -704 320
WIRE -160 352 -160 336
WIRE -112 352 -160 352
WIRE -240 368 -240 240
WIRE -160 368 -160 352
WIRE 608 368 608 336
WIRE 800 368 800 336
WIRE 944 384 944 304
WIRE 944 384 896 384
WIRE 896 416 896 384
WIRE -704 448 -704 432
WIRE -560 448 -560 352
WIRE -496 448 -496 320
WIRE -496 448 -560 448
WIRE -464 448 -496 448
WIRE -384 448 -384 160
WIRE -384 448 -400 448
WIRE -352 448 -352 416
WIRE -352 448 -384 448
WIRE -240 448 -240 432
WIRE -240 448 -352 448
WIRE -160 448 -240 448
WIRE -48 448 -48 400
WIRE -48 448 -160 448
WIRE 128 448 128 352
WIRE 128 448 -48 448
WIRE 224 448 224 400
WIRE 224 448 128 448
WIRE 336 448 336 352
WIRE 336 448 224 448
WIRE 608 448 336 448
WIRE 688 448 688 352
WIRE 688 448 608 448
WIRE 800 448 800 432
WIRE 800 448 688 448
WIRE 864 448 864 192
WIRE 864 448 800 448
WIRE 944 448 944 384
WIRE 944 448 864 448
FLAG 912 80 Out
FLAG -704 448 0
FLAG 896 416 0
SYMBOL diode -464 64 R270
WINDOW 0 16 -2 VTop 0
WINDOW 3 42 87 VBottom 0
SYMATTR InstName D1
SYMATTR Value MR760
SYMBOL diode -400 176 M270
WINDOW 0 16 69 VTop 0
WINDOW 3 64 10 Invisible 0
SYMATTR InstName D2
SYMATTR Value MR760
SYMBOL diode -464 336 R270
WINDOW 0 16 -9 VTop 0
WINDOW 3 66 52 Invisible 0
SYMATTR InstName D3
SYMATTR Value MR760
SYMBOL diode -400 464 M270
WINDOW 0 16 73 VTop 0
WINDOW 3 67 11 Invisible 0
SYMATTR InstName D4
SYMATTR Value MR760
SYMBOL Robertugo\\reg3all 400 96 R0
WINDOW 38 -64 -78 Center 0
WINDOW 0 -112 -50 Center 0
SYMATTR SpiceModel LM317MOT
SYMATTR InstName U1
SYMBOL diode -16 -16 R90
WINDOW 0 44 65 VBottom 0
WINDOW 3 47 36 VTop 0
SYMATTR InstName D5
SYMATTR Value 1N4002
SYMBOL diode 704 192 R180
WINDOW 0 -35 32 Left 0
WINDOW 3 47 -2 VRight 0
SYMATTR InstName D6
SYMATTR Value 1N4002
SYMBOL res 480 96 R0
WINDOW 0 -34 97 Left 0
WINDOW 3 -33 118 Left 0
SYMATTR InstName R6
SYMATTR Value 120
SYMBOL Robertugo\\Pote 208 240 R270
WINDOW 0 5 10 VLeft 0
WINDOW 3 47 98 VLeft 0
WINDOW 123 -38 77 VCenter 0
SYMATTR InstName Potev
SYMATTR Value Rt=2K2
SYMATTR Value2 Set={cur}
SYMBOL res 208 304 R0
WINDOW 0 26 9 Left 0
WINDOW 3 21 48 Left 0
SYMATTR InstName R5
SYMATTR Value 2k2
SYMBOL npn2 64 256 R0
WINDOW 3 -23 111 Left 0
WINDOW 0 -2 10 Left 0
SYMATTR Value BC546A
SYMATTR InstName Q2
SYMBOL npn2 -112 304 R0
WINDOW 3 -28 131 Left 0
WINDOW 0 20 48 Left 0
SYMATTR Value BC546A
SYMATTR InstName Q1
SYMBOL res -176 352 R0
WINDOW 0 37 42 Left 0
WINDOW 3 34 62 Left 0
SYMATTR InstName Rd2
SYMATTR Value 1k5
SYMBOL res -176 240 R0
WINDOW 0 45 33 Left 0
WINDOW 3 42 67 Left 0
SYMATTR InstName Rd1
SYMATTR Value 100k
SYMBOL res 0 96 R0
WINDOW 0 -22 32 Left 0
WINDOW 3 -27 66 Left 0
SYMATTR InstName R4
SYMATTR Value 22k
SYMBOL polcap -256 368 R0
WINDOW 3 -36 -52 Left 0
WINDOW 0 -32 -68 Left 0
SYMATTR Value 10m
SYMATTR InstName Cf1
SYMATTR Description Capacitor
SYMATTR Type cap
SYMATTR SpiceLine V=63 Irms=10 Rser=0.008 Lser=0
SYMBOL polcap 672 288 R0
WINDOW 0 28 14 Left 0
SYMATTR InstName Cf3
SYMATTR Value 10u
SYMATTR Description Capacitor
SYMATTR Type cap
SYMATTR SpiceLine V=50 Irms=170m Rser=1 MTBF=5000 Lser=0 mfg="Nichicon" pn="UPG1H100MPH" type="Al electrolytic" ppPkg=1
SYMBOL polcap 848 128 R0
WINDOW 3 24 64 Left 0
SYMATTR Value 1u
SYMATTR InstName Cf4
SYMATTR Description Capacitor
SYMATTR Type cap
SYMATTR SpiceLine V=50 Irms=36m Rser=3.5 MTBF=2000 Lser=0 mfg="Nichicon" pn="UPL1H010MAH" type="Al electrolytic" ppPkg=1
SYMBOL ind2 -544 224 R180
WINDOW 0 -43 70 Left 0
WINDOW 3 -47 44 Left 0
SYMATTR InstName Ls1
SYMATTR Value 10m
SYMBOL ind2 -544 368 R180
WINDOW 0 -45 84 Left 0
WINDOW 3 -49 56 Left 0
SYMATTR InstName Ls2
SYMATTR Value 10m
SYMBOL ind2 -656 304 M180
WINDOW 0 -36 80 Left 0
WINDOW 3 -25 53 Left 0
SYMATTR InstName Lp
SYMATTR Value 1
SYMATTR SpiceLine Rser=1
SYMBOL res -720 336 R0
SYMATTR InstName Rfuga
SYMATTR Value 1g
SYMBOL voltage -816 176 R0
WINDOW 0 -15 58 Left 0
WINDOW 3 5 108 Left 0
WINDOW 123 0 0 Left 0
WINDOW 39 0 0 Left 0
SYMATTR InstName V1
SYMATTR Value SINE(0 311 50)
SYMBOL Robertugo\\Sw321 -288 240 R0
SYMATTR InstName LL
SYMATTR Value sel={llave}
SYMBOL res -368 320 R0
WINDOW 0 -68 43 Left 0
WINDOW 3 -56 71 Left 0
SYMATTR InstName Roff
SYMATTR Value 1g
SYMBOL res -672 144 R90
WINDOW 0 17 129 VBottom 0
WINDOW 3 -11 -12 VTop 0
SYMATTR InstName Rfuse
SYMATTR Value 0.1
SYMBOL res -32 192 R90
WINDOW 0 15 7 VBottom 0
WINDOW 3 -12 105 VTop 0
SYMATTR InstName R3
SYMATTR Value 33
SYMBOL pnp2 160 144 M270
WINDOW 0 62 73 Left 0
WINDOW 3 21 48 Left 0
SYMATTR InstName Q4
SYMATTR Value TIP2955
SYMBOL res 928 208 R0
WINDOW 0 -24 -29 Left 0
WINDOW 3 -20 138 VLeft 0
SYMATTR InstName RL
SYMATTR Value 8
SYMBOL npn2 400 256 M0
WINDOW 3 20 51 Left 0
WINDOW 0 -2 10 Left 0
SYMATTR Value BC547C
SYMATTR InstName Q3
SYMBOL Robertugo\\Pote 592 240 R0
WINDOW 0 -77 16 Left 0
WINDOW 3 -76 45 Left 0
WINDOW 123 -49 86 Center 0
SYMATTR InstName Potei
SYMATTR Value Rt=22K
SYMATTR Value2 Set=.0
SYMBOL diode 784 368 R0
WINDOW 0 37 30 Left 0
WINDOW 3 22 63 Left 0
SYMATTR InstName D7
SYMATTR Value 1N914
SYMBOL diode 784 272 R0
WINDOW 0 41 34 Left 0
SYMATTR InstName D8
SYMATTR Value 1N914
SYMBOL res 784 112 R0
WINDOW 0 27 50 Left 0
WINDOW 3 25 86 Left 0
SYMATTR InstName R9
SYMATTR Value 12k
SYMBOL res 592 352 R0
WINDOW 0 -31 32 Left 0
WINDOW 3 -37 60 Left 0
SYMATTR InstName R7
SYMATTR Value 10k
SYMBOL res 800 224 R90
WINDOW 0 0 56 VBottom 0
WINDOW 3 32 56 VTop 0
SYMATTR InstName R8
SYMATTR Value 3k3
TEXT 232 480 Left 0 !.tran {.01*llave*llave*3} startup
TEXT -600 160 VRight 0 !K Lp Ls1 Ls2 1
TEXT -512 480 Left 0 ;Vout=1.25 V * (1+ Rpote/R1) + Iadj * Rpote; Iadj=45 uA.
TEXT -832 40 Left 0 !.step param cur 0 1 .25\n.step param llave=2 3 1\n.param il 5
