Version 4
SHEET 1 1056 680
WIRE -336 0 -384 0
WIRE -64 0 -272 0
WIRE 640 0 -64 0
WIRE -720 48 -784 48
WIRE -688 48 -720 48
WIRE -592 48 -624 48
WIRE -384 64 -384 0
WIRE -384 64 -448 64
WIRE -160 64 -384 64
WIRE -64 64 -64 0
WIRE 304 80 208 80
WIRE 528 80 432 80
WIRE 640 80 640 0
WIRE 640 80 528 80
WIRE 720 80 640 80
WIRE 784 80 720 80
WIRE 816 80 784 80
WIRE -448 112 -448 64
WIRE 528 112 528 80
WIRE -784 128 -784 48
WIRE 640 128 640 80
WIRE 720 128 720 80
WIRE -992 160 -1040 160
WIRE -864 160 -912 160
WIRE -720 160 -720 48
WIRE -688 160 -720 160
WIRE -608 160 -624 160
WIRE -384 176 -384 64
WIRE -320 176 -384 176
WIRE -112 176 -112 128
WIRE -112 176 -240 176
WIRE 64 176 -112 176
WIRE 208 176 208 80
WIRE 208 176 160 176
WIRE -1040 192 -1040 160
WIRE -864 208 -864 160
WIRE -544 208 -576 208
WIRE 272 224 240 224
WIRE 368 224 368 128
WIRE 368 224 336 224
WIRE 528 224 528 192
WIRE 528 224 368 224
WIRE 640 224 640 192
WIRE 640 224 528 224
WIRE 816 224 816 80
WIRE -784 240 -784 208
WIRE -544 240 -784 240
WIRE -448 240 -448 192
WIRE -448 240 -480 240
WIRE -336 240 -448 240
WIRE -208 240 -256 240
WIRE -192 240 -208 240
WIRE -160 240 -192 240
WIRE -16 240 -160 240
WIRE -448 256 -448 240
WIRE -208 256 -208 240
WIRE -160 256 -160 240
WIRE -16 256 -16 240
WIRE -784 272 -784 240
WIRE -592 272 -592 48
WIRE -544 272 -592 272
WIRE -48 272 -96 272
WIRE 240 288 240 224
WIRE 240 288 16 288
WIRE 304 288 304 256
WIRE 304 288 240 288
WIRE 640 288 640 224
WIRE -48 304 -64 304
WIRE -1040 320 -1040 272
WIRE -928 320 -1040 320
WIRE -864 320 -864 288
WIRE -864 320 -928 320
WIRE -688 320 -720 320
WIRE -592 320 -592 272
WIRE -592 320 -624 320
WIRE -928 336 -928 320
WIRE -576 336 -576 208
WIRE -448 336 -448 320
WIRE -336 336 -448 336
WIRE -208 336 -208 320
WIRE -160 336 -160 320
WIRE -160 336 -208 336
WIRE -96 336 -96 272
WIRE -96 336 -160 336
WIRE -448 352 -448 336
WIRE -208 352 -208 336
WIRE 112 352 112 240
WIRE 240 352 240 288
WIRE -384 368 -384 176
WIRE 816 384 816 304
WIRE 816 384 768 384
WIRE 768 416 768 384
WIRE -928 432 -928 416
WIRE -336 432 -336 336
WIRE -64 432 -64 304
WIRE -64 432 -336 432
WIRE -784 448 -784 352
WIRE -720 448 -720 320
WIRE -720 448 -784 448
WIRE -688 448 -720 448
WIRE -608 448 -608 160
WIRE -608 448 -624 448
WIRE -576 448 -576 416
WIRE -576 448 -608 448
WIRE -448 448 -448 432
WIRE -448 448 -576 448
WIRE -384 448 -384 432
WIRE -384 448 -448 448
WIRE -208 448 -208 416
WIRE -208 448 -384 448
WIRE -160 448 -160 400
WIRE -160 448 -208 448
WIRE -16 448 -16 320
WIRE -16 448 -160 448
WIRE 112 448 112 432
WIRE 112 448 -16 448
WIRE 240 448 240 432
WIRE 240 448 112 448
WIRE 640 448 640 352
WIRE 640 448 240 448
WIRE 720 448 720 192
WIRE 720 448 640 448
WIRE 816 448 816 384
WIRE 816 448 720 448
FLAG 784 80 Out
FLAG -928 432 0
FLAG 768 416 0
FLAG -192 240 V+
SYMBOL diode -688 64 R270
WINDOW 0 16 -2 VTop 0
WINDOW 3 -4 54 VBottom 0
SYMATTR InstName D1
SYMATTR Value MR760
SYMBOL diode -624 176 M270
WINDOW 0 16 69 VTop 0
WINDOW 3 64 10 Invisible 0
SYMATTR InstName D2
SYMATTR Value MR760
SYMBOL diode -688 336 R270
WINDOW 0 16 -9 VTop 0
WINDOW 3 66 52 Invisible 0
SYMATTR InstName D3
SYMATTR Value MR760
SYMBOL diode -624 464 M270
WINDOW 0 16 73 VTop 0
WINDOW 3 67 11 Invisible 0
SYMATTR InstName D4
SYMATTR Value MR760
SYMBOL Robertugo\\reg3all 432 96 R0
SYMATTR InstName U1
SYMATTR SpiceModel LM317
SYMBOL diode -272 -16 R90
WINDOW 0 42 84 VBottom 0
WINDOW 3 16 -24 VTop 0
SYMATTR InstName Dz38
SYMATTR Value 1N4002
SYMBOL diode 656 192 R180
WINDOW 0 -29 -23 Left 0
WINDOW 3 -18 -8 VRight 0
SYMATTR InstName D6
SYMATTR Value 1N4002
SYMBOL res 512 96 R0
WINDOW 0 -34 97 Left 0
WINDOW 3 -33 118 Left 0
SYMATTR InstName R7
SYMATTR Value 240
SYMBOL Robertugo\\Pote 240 240 R270
WINDOW 0 29 18 VLeft 0
WINDOW 3 47 98 VLeft 0
WINDOW 123 -5 138 VCenter 0
SYMATTR InstName Potev
SYMATTR Value Rt=5k
SYMATTR Value2 Set={cur}
SYMBOL res 224 336 R0
WINDOW 0 31 52 Left 0
WINDOW 3 35 82 Left 0
SYMATTR InstName R6
SYMATTR Value 3k9
SYMBOL polcap -400 368 R0
WINDOW 3 20 54 Left 0
WINDOW 0 27 9 Left 0
SYMATTR Value 10m
SYMATTR InstName Cf1
SYMATTR Description Capacitor
SYMATTR Type cap
SYMATTR SpiceLine V=63 Irms=10 Rser=0.008 Lser=0
SYMBOL polcap 624 288 R0
WINDOW 0 28 14 Left 0
SYMATTR InstName Cf3
SYMATTR Value 5u
SYMATTR Description Capacitor
SYMATTR Type cap
SYMATTR SpiceLine V=50 Irms=170m Rser=1 MTBF=5000 Lser=0 mfg="Nichicon" pn="UPG1H100MPH" type="Al electrolytic" ppPkg=1
SYMBOL polcap 704 128 R0
WINDOW 3 24 64 Left 0
SYMATTR Value 1u
SYMATTR InstName Cf4
SYMATTR Description Capacitor
SYMATTR Type cap
SYMATTR SpiceLine V=50 Irms=36m Rser=3.5 MTBF=2000 Lser=0 mfg="Nichicon" pn="UPL1H010MAH" type="Al electrolytic" ppPkg=1
SYMBOL ind2 -768 224 R180
WINDOW 0 -43 70 Left 0
WINDOW 3 -47 44 Left 0
SYMATTR InstName Ls1
SYMATTR Value 10m
SYMBOL ind2 -768 368 R180
WINDOW 0 -45 84 Left 0
WINDOW 3 -49 56 Left 0
SYMATTR InstName Ls2
SYMATTR Value 10m
SYMBOL ind2 -880 304 M180
WINDOW 0 -36 80 Left 0
WINDOW 3 -25 53 Left 0
SYMATTR InstName Lp
SYMATTR Value 1
SYMATTR SpiceLine Rser=1
SYMBOL res -944 320 R0
WINDOW 0 32 48 Left 0
WINDOW 3 33 84 Left 0
SYMATTR InstName Rfuga
SYMATTR Value 1g
SYMBOL voltage -1040 176 R0
WINDOW 0 -15 58 Left 0
WINDOW 3 5 108 Left 0
WINDOW 123 0 0 Left 0
WINDOW 39 0 0 Left 0
SYMATTR InstName V1
SYMATTR Value SINE(0 311 50)
SYMBOL Robertugo\\Sw321 -512 240 R0
SYMATTR InstName LL
SYMATTR Value sel={llave}
SYMBOL res -592 320 R0
WINDOW 0 -68 43 Left 0
WINDOW 3 -56 71 Left 0
SYMATTR InstName Roff
SYMATTR Value 1g
SYMBOL res -896 144 R90
WINDOW 0 0 56 VBottom 0
WINDOW 3 32 56 VTop 0
SYMATTR InstName Rfuse
SYMATTR Value 0.1
SYMBOL res -224 160 R90
WINDOW 0 18 136 VBottom 0
WINDOW 3 -7 104 VTop 0
SYMATTR InstName R1
SYMATTR Value 27
SYMBOL pnp2 -64 128 M270
WINDOW 0 34 64 VLeft 0
WINDOW 3 58 86 VLeft 0
SYMATTR InstName Q4
SYMATTR Value TIP2955
SYMBOL res 800 208 R0
WINDOW 0 -24 -29 Left 0
WINDOW 3 -20 138 VLeft 0
SYMATTR InstName RL
SYMATTR Value 8
SYMBOL pnp2 160 240 M270
WINDOW 0 34 62 VLeft 0
WINDOW 3 59 77 VLeft 0
SYMATTR InstName Q3
SYMATTR Value BD440
SYMBOL res -432 208 R180
WINDOW 0 36 80 Left 0
WINDOW 3 35 46 Left 0
SYMATTR InstName Rfus
SYMATTR Value 10m
SYMBOL res 96 336 R0
WINDOW 0 34 48 Left 0
WINDOW 3 36 84 Left 0
SYMATTR InstName R3
SYMATTR Value 8k2
SYMBOL Robertugo\\opamp5 -16 224 R0
SYMATTR InstName U2
SYMATTR SpiceModel LM741/NS
SYMBOL res -464 336 R0
SYMATTR InstName R2
SYMATTR Value 22k
SYMBOL zener -192 416 R180
WINDOW 0 24 72 Left 0
WINDOW 3 24 0 Left 0
SYMATTR InstName D5
SYMATTR Value BZX84C12L
SYMATTR Description Diode
SYMATTR Type diode
SYMBOL res -240 224 R90
WINDOW 0 14 103 VBottom 0
WINDOW 3 -9 9 VTop 0
SYMATTR InstName R5
SYMATTR Value 2k2
SYMBOL polcap -176 336 R0
WINDOW 0 24 16 Left 0
WINDOW 3 39 32 Left 0
SYMATTR InstName C1
SYMATTR Value 10u
SYMATTR Description Capacitor
SYMATTR Type cap
SYMATTR SpiceLine V=63 Irms=170m Rser=1 Lser=0 mfg="Nichicon" pn="UPG1J100MPH" type="Al electrolytic"
SYMBOL zener -192 320 R180
WINDOW 0 33 57 Left 0
WINDOW 3 24 7 Left 0
SYMATTR InstName D7
SYMATTR Value BZX84C12L
SYMATTR Description Diode
SYMATTR Type diode
SYMBOL polcap -176 256 R0
WINDOW 0 24 -1 Left 0
WINDOW 3 41 34 Left 0
SYMATTR InstName C2
SYMATTR Value 10u
SYMATTR Description Capacitor
SYMATTR Type cap
SYMATTR SpiceLine V=63 Irms=170m Rser=1 Lser=0 mfg="Nichicon" pn="UPG1J100MPH" type="Al electrolytic"
SYMBOL zener -432 320 R180
WINDOW 0 24 72 Left 0
WINDOW 3 24 0 Left 0
SYMATTR InstName D8
SYMATTR Value DFLZ33
SYMATTR Description Diode
SYMATTR Type diode
TEXT -1064 32 Left 0 !.tran {.04*llave*llave} startup
TEXT -824 160 VRight 0 !K Lp Ls1 Ls2 1
TEXT -1064 8 Left 0 ;Vout=1.25 V * (1+ Rpote/R1) + Iadj * Rpote; Iadj=45 uA.
TEXT -1064 56 Left 0 !.param cur .95\n.param llave 3
