Version 4
SHEET 1 1056 680
WIRE -240 0 -288 0
WIRE -112 0 -176 0
WIRE 32 0 -112 0
WIRE 656 0 32 0
WIRE 96 32 64 32
WIRE 208 32 176 32
WIRE -592 48 -656 48
WIRE -560 48 -592 48
WIRE -464 48 -496 48
WIRE 656 48 656 0
WIRE 672 48 656 48
WIRE -288 64 -288 0
WIRE -288 64 -320 64
WIRE -64 64 -288 64
WIRE 32 64 32 0
WIRE 64 64 64 32
WIRE -112 80 -112 0
WIRE 528 80 464 80
WIRE 576 80 528 80
WIRE 656 80 656 48
WIRE 656 80 576 80
WIRE 752 80 656 80
WIRE -320 112 -320 64
WIRE 528 112 528 80
WIRE -656 128 -656 48
WIRE 208 128 208 32
WIRE 304 128 208 128
WIRE 464 128 464 80
WIRE 464 128 432 128
WIRE 576 128 576 80
WIRE 656 128 656 80
WIRE -864 160 -912 160
WIRE -736 160 -784 160
WIRE -592 160 -592 48
WIRE -560 160 -592 160
WIRE -480 160 -496 160
WIRE -288 176 -288 64
WIRE -240 176 -288 176
WIRE -224 176 -240 176
WIRE -16 176 -16 128
WIRE -16 176 -144 176
WIRE 96 176 -16 176
WIRE -912 192 -912 160
WIRE 96 192 96 176
WIRE 208 192 208 128
WIRE 208 192 192 192
WIRE -736 208 -736 160
WIRE -416 208 -448 208
WIRE 64 208 64 128
WIRE 272 224 240 224
WIRE 368 224 368 176
WIRE 368 224 336 224
WIRE 528 224 528 192
WIRE 528 224 368 224
WIRE 576 224 576 192
WIRE 576 224 528 224
WIRE 752 224 752 80
WIRE -656 240 -656 208
WIRE -416 240 -656 240
WIRE -320 240 -320 192
WIRE -320 240 -352 240
WIRE -288 240 -320 240
WIRE -240 240 -240 176
WIRE -656 272 -656 240
WIRE -464 272 -464 48
WIRE -416 272 -464 272
WIRE -16 272 -16 176
WIRE 16 272 -16 272
WIRE 144 272 144 256
WIRE 144 272 112 272
WIRE 240 272 240 224
WIRE 304 272 304 256
WIRE 304 272 240 272
WIRE 576 288 576 224
WIRE -112 304 -112 160
WIRE -112 304 -128 304
WIRE -912 320 -912 272
WIRE -800 320 -912 320
WIRE -736 320 -736 288
WIRE -736 320 -800 320
WIRE -560 320 -592 320
WIRE -464 320 -464 272
WIRE -464 320 -496 320
WIRE -288 320 -288 240
WIRE 240 320 240 272
WIRE 240 320 -16 320
WIRE -800 336 -800 320
WIRE -448 336 -448 208
WIRE -240 352 -240 320
WIRE -192 352 -240 352
WIRE 144 352 144 272
WIRE 240 352 240 320
WIRE -240 368 -240 352
WIRE -112 368 -112 304
WIRE -80 368 -112 368
WIRE 752 384 752 304
WIRE 752 384 720 384
WIRE 720 400 720 384
WIRE -800 432 -800 416
WIRE -656 448 -656 352
WIRE -592 448 -592 320
WIRE -592 448 -656 448
WIRE -560 448 -592 448
WIRE -480 448 -480 160
WIRE -480 448 -496 448
WIRE -448 448 -448 416
WIRE -448 448 -480 448
WIRE -288 448 -288 384
WIRE -288 448 -448 448
WIRE -240 448 -288 448
WIRE -128 448 -128 400
WIRE -128 448 -240 448
WIRE -16 448 -16 416
WIRE -16 448 -128 448
WIRE 144 448 144 432
WIRE 144 448 -16 448
WIRE 240 448 240 432
WIRE 240 448 144 448
WIRE 576 448 576 352
WIRE 576 448 240 448
WIRE 656 448 656 192
WIRE 656 448 576 448
WIRE 752 448 752 384
WIRE 752 448 656 448
FLAG 672 48 Out
IOPIN 672 48 Out
FLAG -800 432 0
FLAG 720 400 0
SYMBOL diode -560 64 R270
WINDOW 0 16 -2 VTop 0
WINDOW 3 -4 54 VBottom 0
SYMATTR InstName D1
SYMATTR Value MR760
SYMBOL diode -496 176 M270
WINDOW 0 16 69 VTop 0
WINDOW 3 64 10 Invisible 0
SYMATTR InstName D2
SYMATTR Value MR760
SYMBOL diode -560 336 R270
WINDOW 0 16 -9 VTop 0
WINDOW 3 66 52 Invisible 0
SYMATTR InstName D3
SYMATTR Value MR760
SYMBOL diode -496 464 M270
WINDOW 0 16 73 VTop 0
WINDOW 3 67 11 Invisible 0
SYMATTR InstName D4
SYMATTR Value MR760
SYMBOL Robertugo\\reg3all 432 144 R0
SYMATTR InstName U1
SYMATTR SpiceModel LM317
SYMBOL diode -176 -16 R90
WINDOW 0 42 84 VBottom 0
WINDOW 3 16 -20 VTop 0
SYMATTR InstName D5
SYMATTR Value 1N4001
SYMBOL diode 592 192 R180
WINDOW 0 19 -1 Left 0
WINDOW 3 -18 -8 VRight 0
SYMATTR InstName D6
SYMATTR Value 1N4002
SYMBOL res 512 96 R0
WINDOW 0 -34 97 Left 0
WINDOW 3 -33 118 Left 0
SYMATTR InstName R7
SYMATTR Value 220
SYMBOL Robertugo\\Pote 240 240 R270
WINDOW 0 29 18 VLeft 0
WINDOW 3 47 98 VLeft 0
WINDOW 123 -5 138 VCenter 0
SYMATTR InstName Potev
SYMATTR Value Rt=4k7
SYMATTR Value2 Set={cur}
SYMBOL res 224 336 R0
WINDOW 0 -19 30 Left 0
WINDOW 3 -25 63 Left 0
SYMATTR InstName R6
SYMATTR Value 3k9
SYMBOL npn2 -80 320 R0
WINDOW 3 -23 111 Left 0
WINDOW 0 -18 32 Left 0
SYMATTR Value BC548C
SYMATTR InstName Q2
SYMBOL npn2 -192 304 R0
WINDOW 3 -18 130 Left 0
WINDOW 0 1 8 Left 0
SYMATTR Value BC548A
SYMATTR InstName Q1
SYMBOL res -256 352 R0
WINDOW 0 37 42 Left 0
WINDOW 3 34 62 Left 0
SYMATTR InstName Rd2
SYMATTR Value 1k
SYMBOL res -256 224 R0
WINDOW 0 28 47 Left 0
WINDOW 3 27 85 Left 0
SYMATTR InstName Rd1
SYMATTR Value 56k
SYMBOL res -128 64 R0
WINDOW 0 -29 33 Left 0
WINDOW 3 -27 62 Left 0
SYMATTR InstName R5
SYMATTR Value 22k
SYMBOL polcap -304 320 R0
WINDOW 3 20 54 Left 0
WINDOW 0 27 9 Left 0
SYMATTR Value 10m
SYMATTR InstName Cf1
SYMATTR Description Capacitor
SYMATTR Type cap
SYMATTR SpiceLine V=63 Irms=10 Rser=0.008 Lser=0
SYMBOL polcap 560 288 R0
WINDOW 0 28 14 Left 0
SYMATTR InstName Cf3
SYMATTR Value 5u
SYMATTR Description Capacitor
SYMATTR Type cap
SYMATTR SpiceLine V=50 Irms=170m Rser=1 MTBF=5000 Lser=0 mfg="Nichicon" pn="UPG1H100MPH" type="Al electrolytic" ppPkg=1
SYMBOL polcap 640 128 R0
WINDOW 3 24 64 Left 0
SYMATTR Value 1u
SYMATTR InstName Cf4
SYMATTR Description Capacitor
SYMATTR Type cap
SYMATTR SpiceLine V=50 Irms=36m Rser=3.5 MTBF=2000 Lser=0 mfg="Nichicon" pn="UPL1H010MAH" type="Al electrolytic" ppPkg=1
SYMBOL ind2 -640 224 R180
WINDOW 0 -43 70 Left 0
WINDOW 3 -47 44 Left 0
SYMATTR InstName Ls1
SYMATTR Value 10m
SYMBOL ind2 -640 368 R180
WINDOW 0 -45 84 Left 0
WINDOW 3 -49 56 Left 0
SYMATTR InstName Ls2
SYMATTR Value 10m
SYMBOL ind2 -752 304 M180
WINDOW 0 -36 80 Left 0
WINDOW 3 -25 53 Left 0
SYMATTR InstName Lp
SYMATTR Value 1
SYMATTR SpiceLine Rser=1
SYMBOL res -816 320 R0
WINDOW 0 32 48 Left 0
WINDOW 3 33 84 Left 0
SYMATTR InstName Rfuga
SYMATTR Value 1g
SYMBOL voltage -912 176 R0
WINDOW 0 -15 58 Left 0
WINDOW 3 5 108 Left 0
WINDOW 123 0 0 Left 0
WINDOW 39 0 0 Left 0
SYMATTR InstName V1
SYMATTR Value SINE(0 311 50)
SYMBOL Robertugo\\Sw321 -384 240 R0
SYMATTR InstName LL
SYMATTR Value sel={llave}
SYMBOL res -464 320 R0
WINDOW 0 -68 43 Left 0
WINDOW 3 -56 71 Left 0
SYMATTR InstName Roff
SYMATTR Value 1g
SYMBOL res -768 144 R90
WINDOW 0 0 56 VBottom 0
WINDOW 3 32 56 VTop 0
SYMATTR InstName Rfuse
SYMATTR Value 0.1
SYMBOL res -128 160 R90
WINDOW 0 18 136 VBottom 0
WINDOW 3 -7 104 VTop 0
SYMATTR InstName R1
SYMATTR Value 27
SYMBOL pnp2 32 128 M270
WINDOW 0 34 60 VLeft 0
WINDOW 3 61 86 VLeft 0
SYMATTR InstName Q4
SYMATTR Value TIP2955
SYMBOL res 736 208 R0
WINDOW 0 -22 28 Left 0
WINDOW 3 -32 66 Left 0
SYMATTR InstName RL
SYMATTR Value 7.78
SYMBOL pnp2 192 256 M270
WINDOW 0 34 59 VLeft 0
WINDOW 3 63 81 VLeft 0
SYMATTR InstName Q3
SYMATTR Value BD136
SYMBOL res -304 208 R180
WINDOW 0 36 80 Left 0
WINDOW 3 35 46 Left 0
SYMATTR InstName Rfus
SYMATTR Value 10m
SYMBOL res 128 336 R0
WINDOW 0 -31 36 Left 0
WINDOW 3 -32 62 Left 0
SYMATTR InstName R3
SYMATTR Value 8k2
SYMBOL pnp2 112 208 R90
WINDOW 0 34 62 VLeft 0
WINDOW 3 85 86 VLeft 0
SYMATTR InstName Q5
SYMATTR Value BC558C
SYMBOL res 80 48 R270
WINDOW 0 13 5 VTop 0
WINDOW 3 46 94 VBottom 0
SYMATTR InstName R2
SYMATTR Value 1e5
SYMBOL zener 48 64 R0
WINDOW 0 37 32 Left 0
WINDOW 3 24 72 Invisible 0
SYMATTR InstName Dz12
SYMATTR Value BZX84C12L
SYMATTR Description Diode
SYMATTR Type diode
TEXT -936 32 Left 0 !.tran {.05*llave*llave} startup
TEXT -696 160 VRight 0 !K Lp Ls1 Ls2 1
TEXT -936 8 Left 0 ;Vout=1.25 V * (1+ Rpote/R1) + Iadj * Rpote; Iadj=45 uA.
TEXT -936 56 Left 0 !.step param cur 0 1 .5\n.step param llave 2 3 1
TEXT 64 432 Left 0 ;1/2w
