Version 4
SHEET 1 880 680
WIRE -448 -48 -944 -48
WIRE -224 -48 -288 -48
WIRE -96 -48 -160 -48
WIRE -64 -48 -96 -48
WIRE -16 -48 -64 -48
WIRE 32 -48 -16 -48
WIRE 192 -48 112 -48
WIRE 256 -48 192 -48
WIRE 288 -48 256 -48
WIRE -288 -32 -288 -48
WIRE 288 -32 288 -48
WIRE -16 -16 -16 -48
WIRE 192 -16 192 -48
WIRE -944 16 -944 -48
WIRE -448 32 -448 -48
WIRE -288 80 -288 48
WIRE -288 80 -352 80
WIRE -16 80 -16 48
WIRE -16 80 -288 80
WIRE 192 80 192 48
WIRE 192 80 -16 80
WIRE 288 80 288 48
WIRE 288 80 192 80
WIRE -288 112 -288 80
WIRE -16 112 -16 80
WIRE -496 128 -672 128
WIRE -448 128 -448 112
WIRE -448 128 -496 128
WIRE -672 144 -672 128
WIRE -496 160 -496 128
WIRE -288 208 -288 192
WIRE -224 208 -288 208
WIRE -96 208 -96 -48
WIRE -96 208 -160 208
WIRE -752 224 -800 224
WIRE -672 224 -672 208
WIRE -672 224 -752 224
WIRE -640 224 -672 224
WIRE -544 224 -576 224
WIRE -352 224 -352 80
WIRE -672 240 -672 224
WIRE -800 256 -800 224
WIRE -752 288 -752 224
WIRE -752 288 -768 288
WIRE -944 336 -944 96
WIRE -800 336 -800 320
WIRE -800 336 -944 336
WIRE -672 336 -672 320
WIRE -672 336 -800 336
WIRE -496 336 -496 224
WIRE -496 336 -672 336
WIRE -352 336 -352 304
WIRE -352 336 -496 336
FLAG -16 112 0
FLAG 256 -48 Out
FLAG -64 -48 RectOut
SYMBOL ind2 -272 64 R180
WINDOW 0 -32 39 Left 0
WINDOW 3 -42 10 Left 0
SYMATTR InstName L1
SYMATTR Value 2m2
SYMBOL ind2 -272 208 R180
WINDOW 0 -30 76 Left 0
WINDOW 3 -54 42 Left 0
SYMATTR InstName L2
SYMATTR Value 2m2
SYMBOL ind2 -464 128 M180
WINDOW 0 36 80 Left 0
WINDOW 3 36 40 Left 0
SYMATTR InstName L3
SYMATTR Value 1
SYMATTR SpiceLine Rser=10
SYMBOL voltage -944 0 R0
WINDOW 0 -15 58 Left 0
WINDOW 3 40 59 Left 0
WINDOW 123 0 0 Left 0
WINDOW 39 40 87 Left 0
SYMATTR InstName V1
SYMATTR Value SINE(0 312 50)
SYMATTR SpiceLine Rser=.1 Cpar=100n
SYMBOL res -368 208 R0
SYMATTR InstName R1
SYMATTR Value 1e5
SYMBOL diode -224 -32 R270
WINDOW 0 32 32 VTop 0
WINDOW 3 0 32 VBottom 0
SYMATTR InstName D1
SYMATTR Value 1N4001
SYMBOL diode -224 224 R270
WINDOW 0 32 32 VTop 0
WINDOW 3 0 32 VBottom 0
SYMATTR InstName D2
SYMATTR Value 1N4001
SYMBOL cap 0 48 R180
WINDOW 0 24 64 Left 0
WINDOW 3 24 8 Left 0
SYMATTR InstName C1
SYMATTR Value 4m7
SYMBOL res 272 -48 R0
SYMATTR InstName RL1
SYMATTR Value 10
SYMBOL ind 16 -32 R270
WINDOW 0 32 56 VTop 0
WINDOW 3 5 56 VBottom 0
SYMATTR InstName L4
SYMATTR Value 200m
SYMBOL cap 208 48 R180
WINDOW 0 24 64 Left 0
WINDOW 3 24 8 Left 0
SYMATTR InstName C2
SYMATTR Value 2m2
SYMBOL Robertugo\\diac_all -576 192 R90
WINDOW 0 28 -6 VBottom 0
SYMATTR InstName U2
SYMATTR SpiceModel DIAC32
SYMBOL cap -688 144 R0
SYMATTR InstName C3
SYMATTR Value 47n
SYMBOL res -656 336 R180
WINDOW 0 36 76 Left 0
WINDOW 3 36 40 Left 0
SYMATTR InstName R2
SYMATTR Value 100k
SYMBOL Robertugo\\Pote -784 224 M0
SYMATTR InstName U3
SYMATTR Value Rt=22k
SYMATTR Value2 Set=0.33
SYMBOL Robertugo\\Triac_All -528 160 R0
SYMATTR InstName U1
SYMATTR SpiceModel L4008L8
TEXT -376 -32 VRight 0 !K1 L1 L2 L3 1
TEXT -624 -72 Left 0 !.tran 0 .5 0
