Version 4
SHEET 1 880 680
WIRE 256 16 -192 16
WIRE -192 64 -192 16
WIRE -80 64 -128 64
WIRE -64 64 -80 64
WIRE 96 64 16 64
WIRE 256 64 256 16
WIRE 256 64 176 64
WIRE -80 80 -80 64
WIRE 176 112 176 64
WIRE 256 128 256 64
WIRE 96 160 96 64
WIRE -80 176 -80 160
WIRE -192 208 -192 64
WIRE -128 208 -192 208
WIRE 32 208 -48 208
WIRE -192 224 -192 208
WIRE 176 224 176 176
WIRE 256 224 256 208
WIRE 256 224 176 224
WIRE -128 240 -128 208
WIRE -80 256 -80 240
WIRE 256 256 256 224
WIRE 16 272 16 64
WIRE 96 272 96 256
WIRE 160 304 160 256
WIRE -192 352 -192 304
WIRE -160 352 -192 352
WIRE -144 352 -160 352
WIRE -128 352 -128 304
WIRE -128 352 -144 352
WIRE -80 352 -80 336
WIRE -64 352 -80 352
WIRE 16 352 16 336
WIRE 16 352 -64 352
WIRE 96 352 16 352
WIRE 160 352 96 352
WIRE 256 352 256 336
WIRE 256 352 224 352
WIRE -144 368 -144 352
WIRE -64 368 -64 352
WIRE -160 384 -160 352
FLAG -160 384 0
SYMBOL voltage -192 208 R0
WINDOW 3 -18 -144 VRight 0
WINDOW 123 0 0 Left 0
SYMATTR Value SINE(0 315 50)
SYMATTR SpiceLine Rser=1m
SYMATTR InstName V1
SYMBOL diode -192 80 R270
WINDOW 0 34 18 VTop 0
WINDOW 3 58 91 VBottom 0
SYMATTR InstName D1
SYMATTR Value MUR460
SYMBOL cap -144 240 R0
WINDOW 0 -16 12 Left 0
WINDOW 3 -40 65 Left 0
SYMATTR InstName C1
SYMATTR Value 220n
SYMBOL cap 160 240 R90
WINDOW 0 -2 85 VBottom 0
WINDOW 3 -28 27 VTop 0
SYMATTR InstName C3
SYMATTR Value 470n
SYMBOL res -96 64 R0
WINDOW 0 -19 17 Left 0
WINDOW 3 -57 62 Left 0
SYMATTR InstName R1
SYMATTR Value 680K
SYMATTR SpiceLine tol=1 pwr=0.1
SYMBOL res -96 240 R0
WINDOW 0 36 20 Left 0
WINDOW 3 24 46 Left 0
SYMATTR InstName R2
SYMATTR Value 100K
SYMATTR SpiceLine tol=1 pwr=0.1
SYMBOL res 80 256 R0
WINDOW 0 -37 22 Left 0
WINDOW 3 -38 53 Left 0
SYMATTR InstName R3
SYMATTR Value 22K
SYMATTR SpiceLine tol=1 pwr=0.1
SYMBOL res 32 48 R90
WINDOW 0 0 56 VBottom 0
WINDOW 3 32 56 VTop 0
SYMATTR InstName R4
SYMATTR Value 100K
SYMATTR SpiceLine tol=1 pwr=0.1
SYMBOL ind -48 352 R90
WINDOW 0 5 56 VBottom 0
WINDOW 3 7 -14 VTop 0
SYMATTR InstName L1
SYMATTR Value 68µ
SYMATTR SpiceLine Ipk=4 Rser=0.112 Rpar=0 Cpar=0 mfg="WE eiSos" pn="744 571 68"
SYMBOL Pote -64 272 R180
WINDOW 0 40 8 Invisible 0
WINDOW 123 -36 88 Center 0
WINDOW 3 49 68 VCenter 0
SYMATTR InstName U1
SYMATTR Value2 Set=1
SYMATTR Value Rt=250k
SYMBOL polcap 0 272 R0
WINDOW 0 -36 38 Left 0
WINDOW 3 -32 65 Left 0
SYMATTR InstName C2
SYMATTR Value 10µ
SYMATTR Description Capacitor
SYMATTR Type cap
SYMATTR SpiceLine V=50 Irms=170m Rser=1 MTBF=5000 Lser=0 mfg="Nichicon" pn="UPG1H100MPH" type="Al electrolytic" ppPkg=1
SYMBOL pnp2 32 256 M180
WINDOW 0 24 130 Left 0
WINDOW 3 -16 102 Left 0
SYMATTR InstName Q1
SYMATTR Value 2N2907
SYMBOL res 240 240 R0
WINDOW 0 -27 63 Left 0
WINDOW 3 -20 32 Left 0
SYMATTR InstName R5
SYMATTR Value 1
SYMATTR SpiceLine tol=1 pwr=0.1
SYMBOL res 240 112 R0
WINDOW 0 -27 63 Left 0
WINDOW 3 -20 32 Left 0
SYMATTR InstName R6
SYMATTR Value 100
SYMATTR SpiceLine tol=1 pwr=0.1
SYMBOL polcap 160 112 R0
WINDOW 0 -38 34 Left 0
WINDOW 3 -35 61 Left 0
SYMATTR InstName C4
SYMATTR Value 1m
SYMATTR Description Capacitor
SYMATTR Type cap
SYMATTR SpiceLine V=100 Irms=1.33 Rser=0.047 MTBF=2000 Lser=0 mfg="Nichicon" pn="UPR2A102MRH" type="Al electrolytic" ppPkg=1
SYMBOL Thyr_All 224 336 R90
WINDOW 0 -1 69 VRight 0
WINDOW 3 -104 34 Left 0
SYMATTR InstName U3
TEXT 48 32 Left 0 !.tran 0 1.5 0 100u
