Version 4
SHEET 1 892 944
FLAG 176 80 VDD
FLAG 128 -96 BA7
IOPIN 128 -96 In
FLAG 128 -64 BB7
IOPIN 128 -64 In
FLAG 128 160 BA6
IOPIN 128 160 In
FLAG 128 192 BB6
IOPIN 128 192 In
FLAG 320 -80 O7
IOPIN 320 -80 Out
FLAG 320 176 O6
IOPIN 320 176 Out
FLAG 176 592 VDD
FLAG 128 416 BA5
IOPIN 128 416 In
FLAG 128 448 BB5
IOPIN 128 448 In
FLAG 128 672 BA4
IOPIN 128 672 In
FLAG 128 704 BB4
IOPIN 128 704 In
FLAG 320 432 O5
IOPIN 320 432 Out
FLAG 320 688 O4
IOPIN 320 688 Out
FLAG 176 336 VDD
FLAG 608 80 VDD
FLAG 560 -96 BA3
IOPIN 560 -96 In
FLAG 560 -64 BB3
IOPIN 560 -64 In
FLAG 560 160 BA2
IOPIN 560 160 In
FLAG 560 192 BB2
IOPIN 560 192 In
FLAG 752 -80 O3
IOPIN 752 -80 Out
FLAG 752 176 O2
IOPIN 752 176 Out
FLAG 608 592 VDD
FLAG 560 416 BA1
IOPIN 560 416 In
FLAG 560 448 BB1
IOPIN 560 448 In
FLAG 560 672 BA0
IOPIN 560 672 In
FLAG 560 704 BB0
IOPIN 560 704 In
FLAG 752 432 O1
IOPIN 752 432 Out
FLAG 752 688 O0
IOPIN 752 688 Out
FLAG 608 336 VDD
FLAG 608 -176 VDD
FLAG 176 -176 VDD
FLAG 272 16 Select
FLAG 704 16 Select
FLAG 704 272 Select
FLAG 272 272 Select
FLAG 272 528 Select
FLAG 704 528 Select
FLAG 704 784 Select
FLAG 272 784 Select
SYMBOL Selectorbit 144 0 R0
SYMATTR InstName X5
SYMBOL Selectorbit 144 256 R0
SYMATTR InstName X6
SYMBOL Selectorbit 144 512 R0
SYMATTR InstName X7
SYMBOL Selectorbit 144 768 R0
SYMATTR InstName X8
SYMBOL Selectorbit 576 0 R0
SYMATTR InstName X9
SYMBOL Selectorbit 576 256 R0
SYMATTR InstName X10
SYMBOL Selectorbit 576 512 R0
SYMATTR InstName X11
SYMBOL Selectorbit 576 768 R0
SYMATTR InstName X12
