Version 4
SHEET 1 4120 1896
WIRE 1024 -16 928 -16
WIRE 1216 -16 1088 -16
WIRE 928 16 928 -16
WIRE 1216 48 1216 -16
WIRE 928 64 928 16
WIRE 2448 64 2448 48
WIRE 1216 112 1216 48
WIRE 2448 176 2448 144
WIRE 2304 272 2304 240
WIRE 2448 272 2448 256
WIRE 2656 304 2656 272
WIRE 2848 304 2848 272
WIRE 3040 304 3040 272
WIRE 3232 304 3232 272
WIRE 2448 384 2448 352
WIRE 112 416 80 416
WIRE 160 416 112 416
WIRE 832 416 800 416
WIRE 880 416 832 416
WIRE 1632 416 1600 416
WIRE 1680 416 1632 416
WIRE 80 432 80 416
WIRE 640 512 640 496
WIRE 1440 512 1440 496
WIRE 80 528 80 512
WIRE 384 576 384 416
WIRE 832 576 832 416
WIRE 832 576 384 576
WIRE 1184 576 1184 416
WIRE 1632 576 1632 416
WIRE 1632 576 1184 576
WIRE 832 752 800 752
WIRE 880 752 832 752
WIRE 1632 752 1600 752
WIRE 1680 752 1632 752
WIRE 2560 768 2560 736
WIRE 2752 768 2752 736
WIRE 2944 768 2944 736
WIRE 3136 768 3136 736
WIRE 1968 800 1920 800
WIRE 2256 800 2208 800
WIRE 640 848 640 832
WIRE 1440 848 1440 832
WIRE 384 912 384 752
WIRE 832 912 832 752
WIRE 832 912 384 912
WIRE 1184 912 1184 752
WIRE 1632 912 1632 752
WIRE 1632 912 1184 912
WIRE 2256 912 2256 800
WIRE 2288 912 2256 912
WIRE 2320 912 2288 912
WIRE 2320 944 2320 912
WIRE 1968 1040 1968 800
WIRE 1968 1040 1920 1040
WIRE 2256 1040 2256 912
WIRE 2256 1040 2208 1040
WIRE 2320 1040 2320 1008
WIRE 832 1088 800 1088
WIRE 880 1088 832 1088
WIRE 1632 1088 1600 1088
WIRE 1680 1088 1632 1088
WIRE 2528 1104 2528 1072
WIRE 2688 1104 2688 1072
WIRE 2864 1104 2864 1072
WIRE 3024 1104 3024 1072
WIRE 2256 1168 2256 1040
WIRE 2352 1168 2256 1168
WIRE 640 1184 640 1168
WIRE 1440 1184 1440 1168
WIRE 2352 1216 2352 1168
WIRE 384 1248 384 1088
WIRE 832 1248 832 1088
WIRE 832 1248 384 1248
WIRE 1184 1248 1184 1088
WIRE 1632 1248 1632 1088
WIRE 1632 1248 1184 1248
WIRE 1968 1280 1968 1040
WIRE 1968 1280 1920 1280
WIRE 2256 1280 2256 1168
WIRE 2256 1280 2208 1280
WIRE 2352 1344 2352 1296
WIRE 2352 1376 2352 1344
WIRE 832 1424 800 1424
WIRE 880 1424 832 1424
WIRE 1632 1424 1600 1424
WIRE 1680 1424 1632 1424
WIRE 2352 1472 2352 1440
WIRE 640 1520 640 1504
WIRE 1440 1520 1440 1504
WIRE 1968 1520 1968 1280
WIRE 1968 1520 1920 1520
WIRE 2256 1520 2256 1280
WIRE 2256 1520 2208 1520
WIRE 2576 1568 2576 1536
WIRE 2736 1568 2736 1536
WIRE 2912 1568 2912 1536
WIRE 3072 1568 3072 1536
WIRE 384 1584 384 1424
WIRE 832 1584 832 1424
WIRE 832 1584 384 1584
WIRE 1184 1584 1184 1424
WIRE 1632 1584 1632 1424
WIRE 1632 1584 1184 1584
WIRE 1968 1600 1968 1520
WIRE 2256 1600 2256 1520
WIRE 2256 1600 1968 1600
FLAG 2656 304 0
FLAG 2656 192 p1_1
FLAG 2848 304 0
FLAG 2848 192 p2_1
FLAG 80 528 0
FLAG 112 416 Vin
FLAG 3040 304 0
FLAG 3040 192 p1_2
FLAG 3232 304 0
FLAG 3232 192 p2_2
FLAG 2560 768 0
FLAG 2560 656 p1_3
FLAG 2752 768 0
FLAG 2752 656 p2_3
FLAG 2944 768 0
FLAG 2944 656 p1_4
FLAG 3136 768 0
FLAG 3136 656 p2_4
FLAG 336 288 VDD
FLAG 208 288 p1_1
FLAG 272 288 p2_1
FLAG 160 368 VCM
FLAG 640 336 VDD
FLAG 640 512 p2_1
FLAG 832 416 out1
FLAG 336 624 VDD
FLAG 208 624 p1_2
FLAG 272 624 p2_2
FLAG 160 752 Vin
FLAG 160 704 VCM
FLAG 640 672 VDD
FLAG 640 848 p2_2
FLAG 832 752 out2
FLAG 336 960 VDD
FLAG 208 960 p1_3
FLAG 272 960 p2_3
FLAG 160 1088 Vin
FLAG 160 1040 VCM
FLAG 640 1008 VDD
FLAG 640 1184 p2_3
FLAG 832 1088 out3
FLAG 512 1472 Vint
FLAG 336 1296 VDD
FLAG 208 1296 p1_4
FLAG 272 1296 p2_4
FLAG 160 1424 Vin
FLAG 160 1376 VCM
FLAG 640 1344 VDD
FLAG 640 1520 p2_4
FLAG 1136 288 VDD
FLAG 1008 288 p2_1
FLAG 1072 288 p1_1
FLAG 960 416 Vin
FLAG 960 368 VCM
FLAG 1440 336 VDD
FLAG 1440 512 p1_1
FLAG 1632 416 out5
FLAG 1136 624 VDD
FLAG 1008 624 p2_2
FLAG 1072 624 p1_2
FLAG 960 752 Vin
FLAG 960 704 VCM
FLAG 1440 672 VDD
FLAG 1440 848 p1_2
FLAG 1632 752 out6
FLAG 1136 960 VDD
FLAG 1008 960 p2_3
FLAG 1072 960 p1_3
FLAG 960 1088 Vin
FLAG 960 1040 VCM
FLAG 1440 1008 VDD
FLAG 1440 1184 p1_3
FLAG 1632 1088 out7
FLAG 1136 1296 VDD
FLAG 1008 1296 p2_4
FLAG 1072 1296 p1_4
FLAG 960 1424 Vin
FLAG 960 1376 VCM
FLAG 1440 1344 VDD
FLAG 1440 1520 p1_4
FLAG 1632 1424 out8
FLAG 832 1424 out4
FLAG 1184 368 Vsum
FLAG 1184 704 Vsum
FLAG 1184 1040 Vsum
FLAG 1184 1376 Vsum
FLAG 384 1376 Vsum
FLAG 384 1040 Vsum
FLAG 384 704 Vsum
FLAG 384 368 Vsum
FLAG 512 1136 Vint
FLAG 512 800 Vint
FLAG 512 464 Vint
FLAG 512 1376 VCM
FLAG 512 1040 VCM
FLAG 512 704 VCM
FLAG 512 368 VCM
FLAG 1312 1472 Vint
FLAG 1312 1376 VCM
FLAG 1312 1136 Vint
FLAG 1312 1040 VCM
FLAG 1312 800 Vint
FLAG 1312 704 VCM
FLAG 1312 464 Vint
FLAG 1312 368 VCM
FLAG 928 160 VCM
FLAG 1216 48 Vint
FLAG 928 16 Vsum
FLAG 2528 1104 0
FLAG 2528 992 c1
FLAG 2688 1104 0
FLAG 2688 992 c2
FLAG 2864 1104 0
FLAG 2864 992 c3
FLAG 3024 1104 0
FLAG 3024 992 c4
FLAG 2576 1568 0
FLAG 2576 1456 c5
FLAG 2736 1568 0
FLAG 2736 1456 c6
FLAG 2912 1568 0
FLAG 2912 1456 c7
FLAG 3072 1568 0
FLAG 3072 1456 c8
FLAG 1856 752 VCM
FLAG 1904 752 c1
FLAG 1856 992 VCM
FLAG 1904 992 c2
FLAG 1856 1232 VCM
FLAG 1904 1232 c3
FLAG 1856 1472 VCM
FLAG 1904 1472 c4
FLAG 2352 1472 0
FLAG 2352 1344 Voutf
FLAG 2320 1040 0
FLAG 1840 320 out1
FLAG 1840 288 out2
FLAG 1952 32 VDD
FLAG 1952 384 p2_1
FLAG 1840 256 out3
FLAG 1840 224 out4
FLAG 1840 192 out5
FLAG 1840 160 out6
FLAG 1840 128 out7
FLAG 1840 96 out8
FLAG 2064 320 out1b
FLAG 2064 288 out2b
FLAG 2064 256 out3b
FLAG 2064 224 out4b
FLAG 2064 192 out5b
FLAG 2064 160 out6b
FLAG 2064 128 out7b
FLAG 2064 96 out8b
FLAG 2144 752 VCM
FLAG 2192 752 c5
FLAG 2144 992 VCM
FLAG 2192 992 c6
FLAG 2144 1232 VCM
FLAG 2192 1232 c7
FLAG 2144 1472 VCM
FLAG 2192 1472 c8
FLAG 1840 800 out1b
FLAG 1840 1040 out2b
FLAG 1840 1280 out3b
FLAG 1840 1520 out4b
FLAG 2128 800 out5b
FLAG 2128 1040 out6b
FLAG 2128 1280 out7b
FLAG 2128 1520 out8b
FLAG 2288 912 Vout
FLAG 2448 176 0
FLAG 2448 48 VDD
FLAG 2448 384 0
FLAG 2448 256 VCM
FLAG 2304 272 0
FLAG 2304 160 clk
SYMBOL voltage 2656 176 R0
WINDOW 0 36 42 Left 0
WINDOW 3 -52 207 VLeft 0
WINDOW 123 0 0 Left 0
WINDOW 39 0 0 Left 0
SYMATTR InstName Vp1_1
SYMATTR Value Pulse 0 1 0 100p 100p 4.8n 10n
SYMBOL voltage 2848 176 R0
WINDOW 0 36 42 Left 0
WINDOW 3 -52 207 VLeft 0
WINDOW 123 0 0 Left 0
WINDOW 39 0 0 Left 0
SYMATTR InstName Vp2_1
SYMATTR Value PULSE(0 1 5n 100p 100p 4.8n 10n)
SYMBOL voltage 80 416 R0
WINDOW 0 26 93 Left 0
WINDOW 123 0 0 Left 0
WINDOW 39 0 0 Left 0
WINDOW 3 -51 128 VLeft 0
SYMATTR InstName Vin
SYMATTR Value SINE(0.5 0.4 3MEG)
SYMBOL voltage 3040 176 R0
WINDOW 0 36 42 Left 0
WINDOW 3 -52 207 VLeft 0
WINDOW 123 0 0 Left 0
WINDOW 39 0 0 Left 0
SYMATTR InstName Vp1_2
SYMATTR Value Pulse 0 1 1.25n 100p 100p 4.8n 10n
SYMBOL voltage 3232 176 R0
WINDOW 0 36 42 Left 0
WINDOW 3 -52 207 VLeft 0
WINDOW 123 0 0 Left 0
WINDOW 39 0 0 Left 0
SYMATTR InstName Vp2_2
SYMATTR Value PULSE(0 1 6.25n 100p 100p 4.8n 10n)
SYMBOL voltage 2560 640 R0
WINDOW 0 36 42 Left 0
WINDOW 3 -52 207 VLeft 0
WINDOW 123 0 0 Left 0
WINDOW 39 0 0 Left 0
SYMATTR InstName Vp1_3
SYMATTR Value Pulse 0 1 2.5n 100p 100p 4.8n 10n
SYMBOL voltage 2752 640 R0
WINDOW 0 36 42 Left 0
WINDOW 3 -52 207 VLeft 0
WINDOW 123 0 0 Left 0
WINDOW 39 0 0 Left 0
SYMATTR InstName Vp2_3
SYMATTR Value PULSE(0 1 7.5n 100p 100p 4.8n 10n)
SYMBOL voltage 2944 640 R0
WINDOW 0 36 42 Left 0
WINDOW 3 -52 207 VLeft 0
WINDOW 123 0 0 Left 0
WINDOW 39 0 0 Left 0
SYMATTR InstName Vp1_4
SYMATTR Value Pulse 0 1 3.75n 100p 100p 4.8n 10n
SYMBOL voltage 3136 640 R0
WINDOW 0 36 42 Left 0
WINDOW 3 -52 207 VLeft 0
WINDOW 123 0 0 Left 0
WINDOW 39 0 0 Left 0
SYMATTR InstName Vp2_4
SYMATTR Value PULSE(0 1 8.75n 100p 100p 4.8n 10n)
SYMBOL Ideal_clocked_comparator 560 416 R0
SYMATTR InstName X1
SYMBOL Ideal_clocked_comparator 560 752 R0
SYMATTR InstName X2
SYMBOL Ideal_clocked_comparator 560 1088 R0
SYMATTR InstName X3
SYMBOL Ideal_clocked_comparator 560 1424 R0
SYMATTR InstName X4
SYMBOL Ideal_clocked_comparator 1360 416 R0
SYMATTR InstName X5
SYMBOL Ideal_clocked_comparator 1360 752 R0
SYMATTR InstName X6
SYMBOL Ideal_clocked_comparator 1360 1088 R0
SYMATTR InstName X7
SYMBOL Ideal_clocked_comparator 1360 1424 R0
SYMATTR InstName X8
SYMBOL SC_input_1 176 448 R0
SYMATTR InstName X9
SYMBOL SC_input_1 176 784 R0
SYMATTR InstName X10
SYMBOL SC_input_1 176 1120 R0
SYMATTR InstName X11
SYMBOL SC_input_1 176 1456 R0
SYMATTR InstName X12
SYMBOL SC_input_1 976 1456 R0
SYMATTR InstName X13
SYMBOL SC_input_1 976 1120 R0
SYMATTR InstName X14
SYMBOL SC_input_1 976 784 R0
SYMATTR InstName X15
SYMBOL SC_input_1 976 448 R0
SYMATTR InstName X16
SYMBOL Ideal_op_amp 976 112 R0
SYMATTR InstName X28
SYMBOL cap 1024 0 R270
WINDOW 0 32 32 VTop 0
WINDOW 3 0 32 VBottom 0
SYMATTR InstName C2
SYMATTR Value 400f
SYMBOL voltage 2528 976 R0
WINDOW 0 36 42 Left 0
WINDOW 3 -52 207 VLeft 0
WINDOW 123 0 0 Left 0
WINDOW 39 0 0 Left 0
SYMATTR InstName Vc1
SYMATTR Value PULSE(0 1 5n 10p 10p 1.23n 10n)
SYMBOL voltage 2688 976 R0
WINDOW 0 36 42 Left 0
WINDOW 3 -52 207 VLeft 0
WINDOW 123 0 0 Left 0
WINDOW 39 0 0 Left 0
SYMATTR InstName Vc2
SYMATTR Value PULSE(0 1 6.25n 10p 10p 1.23n 10n)
SYMBOL voltage 2864 976 R0
WINDOW 0 36 42 Left 0
WINDOW 3 -52 207 VLeft 0
WINDOW 123 0 0 Left 0
WINDOW 39 0 0 Left 0
SYMATTR InstName Vc3
SYMATTR Value PULSE(0 1 7.5n 10p 10p 1.23n 10n)
SYMBOL voltage 3024 976 R0
WINDOW 0 36 42 Left 0
WINDOW 3 -52 207 VLeft 0
WINDOW 123 0 0 Left 0
WINDOW 39 0 0 Left 0
SYMATTR InstName Vc4
SYMATTR Value PULSE(0 1 8.75n 10p 10p 1.23n 10n)
SYMBOL voltage 2576 1440 R0
WINDOW 0 36 42 Left 0
WINDOW 3 -52 207 VLeft 0
WINDOW 123 0 0 Left 0
WINDOW 39 0 0 Left 0
SYMATTR InstName Vc5
SYMATTR Value PULSE(0 1 0 10p 10p 1.23n 10n)
SYMBOL voltage 2736 1440 R0
WINDOW 0 36 42 Left 0
WINDOW 3 -52 207 VLeft 0
WINDOW 123 0 0 Left 0
WINDOW 39 0 0 Left 0
SYMATTR InstName Vc6
SYMATTR Value PULSE(0 1 1.25n 10p 10p 1.23n 10n)
SYMBOL voltage 2912 1440 R0
WINDOW 0 36 42 Left 0
WINDOW 3 -52 207 VLeft 0
WINDOW 123 0 0 Left 0
WINDOW 39 0 0 Left 0
SYMATTR InstName Vc7
SYMATTR Value PULSE(0 1 2.5n 10p 10p 1.23n 10n)
SYMBOL voltage 3072 1440 R0
WINDOW 0 36 42 Left 0
WINDOW 3 -52 207 VLeft 0
WINDOW 123 0 0 Left 0
WINDOW 39 0 0 Left 0
SYMATTR InstName Vc8
SYMATTR Value PULSE(0 1 3.75n 10p 10p 1.23n 10n)
SYMBOL sw 1824 800 M90
WINDOW 3 24 -12 Left 0
WINDOW 38 40 36 Left 0
WINDOW 0 32 85 Left 0
SYMATTR Value ""
SYMATTR SpiceModel switmod
SYMATTR InstName S2
SYMBOL sw 1824 1040 M90
WINDOW 3 24 -12 Left 0
WINDOW 38 40 36 Left 0
WINDOW 0 32 85 Left 0
SYMATTR Value ""
SYMATTR SpiceModel switmod
SYMATTR InstName S3
SYMBOL sw 1824 1280 M90
WINDOW 3 24 -12 Left 0
WINDOW 38 40 36 Left 0
WINDOW 0 32 85 Left 0
SYMATTR Value ""
SYMATTR SpiceModel switmod
SYMATTR InstName S4
SYMBOL sw 1824 1520 M90
WINDOW 3 24 -12 Left 0
WINDOW 38 40 36 Left 0
WINDOW 0 32 85 Left 0
SYMATTR Value ""
SYMATTR SpiceModel switmod
SYMATTR InstName S5
SYMBOL cap 2336 1376 R0
SYMATTR InstName C1
SYMATTR Value 1p
SYMBOL res 2336 1200 R0
SYMATTR InstName R1
SYMATTR Value 10k
SYMBOL cap 2304 944 R0
SYMATTR InstName C3
SYMATTR Value 10p
SYMBOL 8_bit_register 1872 352 R0
SYMATTR InstName X17
SYMBOL sw 2112 800 M90
WINDOW 3 24 -12 Left 0
WINDOW 38 40 36 Left 0
WINDOW 0 32 85 Left 0
SYMATTR Value ""
SYMATTR SpiceModel switmod
SYMATTR InstName S1
SYMBOL sw 2112 1040 M90
WINDOW 3 24 -12 Left 0
WINDOW 38 40 36 Left 0
WINDOW 0 32 85 Left 0
SYMATTR Value ""
SYMATTR SpiceModel switmod
SYMATTR InstName S6
SYMBOL sw 2112 1280 M90
WINDOW 3 24 -12 Left 0
WINDOW 38 40 36 Left 0
WINDOW 0 32 85 Left 0
SYMATTR Value ""
SYMATTR SpiceModel switmod
SYMATTR InstName S7
SYMBOL sw 2112 1520 M90
WINDOW 3 24 -12 Left 0
WINDOW 38 40 36 Left 0
WINDOW 0 32 85 Left 0
SYMATTR Value ""
SYMATTR SpiceModel switmod
SYMATTR InstName S8
SYMBOL voltage 2448 48 R0
WINDOW 0 48 35 Left 0
WINDOW 3 67 71 Left 0
SYMATTR InstName VDD1
SYMATTR Value 1
SYMBOL voltage 2448 256 R0
WINDOW 0 36 35 Left 0
WINDOW 3 43 76 Left 0
SYMATTR InstName VCM1
SYMATTR Value 0.5
SYMBOL voltage 2304 144 R0
WINDOW 0 36 42 Left 0
WINDOW 3 -52 207 VLeft 0
WINDOW 123 0 0 Left 0
WINDOW 39 0 0 Left 0
SYMATTR InstName Vc9
SYMATTR Value PULSE(0 1 625p 10p 10p 615p 1.25n)
TEXT 408 128 Left 0 !.tran 0 3.1u 100n 10p uic
TEXT 408 160 Left 0 !.options plotwinsize=0
TEXT 408 96 Left 0 !.save v(vout) v(clk) v(vin) v(voutf) v(c1) v(out8) v(out1)
TEXT 392 200 Left 0 !.model switmod SW
TEXT 2768 408 Left 0 ;Non-overlapping clocks
TEXT 2512 1216 Left 0 ;Steering clocks for output switches
TEXT 1872 456 Left 0 ;Decimation by K
TEXT 1928 656 Left 0 ;Interpolate by K
TEXT 1760 560 Left 0 ;Decimate and then interpolate to get original data back.
