Version 4
SHEET 1 3304 1896
WIRE 1024 -16 928 -16
WIRE 1216 -16 1088 -16
WIRE 2016 0 2016 -16
WIRE 928 16 928 -16
WIRE 1216 48 1216 -16
WIRE 928 64 928 16
WIRE 1216 112 1216 48
WIRE 2016 112 2016 80
WIRE 1776 208 1776 176
WIRE 2016 208 2016 192
WIRE 2240 224 2240 192
WIRE 2432 224 2432 192
WIRE 2624 224 2624 192
WIRE 2816 224 2816 192
WIRE 2016 320 2016 288
WIRE 112 416 80 416
WIRE 160 416 112 416
WIRE 832 416 800 416
WIRE 880 416 832 416
WIRE 1008 416 960 416
WIRE 1792 416 1760 416
WIRE 1840 416 1792 416
WIRE 1968 416 1920 416
WIRE 80 432 80 416
WIRE 640 512 640 496
WIRE 1600 512 1600 496
WIRE 80 528 80 512
WIRE 384 576 384 416
WIRE 832 576 832 416
WIRE 832 576 384 576
WIRE 1344 576 1344 416
WIRE 1792 576 1792 416
WIRE 1792 576 1344 576
WIRE 2224 704 2224 672
WIRE 2416 704 2416 672
WIRE 2608 704 2608 672
WIRE 2800 704 2800 672
WIRE 832 752 800 752
WIRE 880 752 832 752
WIRE 1008 752 1008 416
WIRE 1008 752 960 752
WIRE 1792 752 1760 752
WIRE 1840 752 1792 752
WIRE 1968 752 1968 416
WIRE 1968 752 1920 752
WIRE 640 848 640 832
WIRE 1600 848 1600 832
WIRE 384 912 384 752
WIRE 832 912 832 752
WIRE 832 912 384 912
WIRE 1344 912 1344 752
WIRE 1792 912 1792 752
WIRE 1792 912 1344 912
WIRE 2192 1040 2192 1008
WIRE 2352 1040 2352 1008
WIRE 2528 1040 2528 1008
WIRE 2688 1040 2688 1008
WIRE 1968 1056 1968 752
WIRE 2032 1056 1968 1056
WIRE 832 1088 800 1088
WIRE 880 1088 832 1088
WIRE 1008 1088 1008 752
WIRE 1008 1088 960 1088
WIRE 1792 1088 1760 1088
WIRE 1840 1088 1792 1088
WIRE 1968 1088 1968 1056
WIRE 1968 1088 1920 1088
WIRE 2032 1088 2032 1056
WIRE 640 1184 640 1168
WIRE 1600 1184 1600 1168
WIRE 2032 1184 2032 1152
WIRE 384 1248 384 1088
WIRE 832 1248 832 1088
WIRE 832 1248 384 1248
WIRE 1344 1248 1344 1088
WIRE 1792 1248 1792 1088
WIRE 1792 1248 1344 1248
WIRE 1968 1280 1968 1088
WIRE 2064 1280 1968 1280
WIRE 1968 1312 1968 1280
WIRE 2064 1328 2064 1280
WIRE 832 1424 800 1424
WIRE 880 1424 832 1424
WIRE 1008 1424 1008 1088
WIRE 1008 1424 960 1424
WIRE 1792 1424 1760 1424
WIRE 1840 1424 1792 1424
WIRE 1968 1424 1968 1312
WIRE 1968 1424 1920 1424
WIRE 2064 1456 2064 1408
WIRE 2064 1488 2064 1456
WIRE 2240 1504 2240 1472
WIRE 2400 1504 2400 1472
WIRE 2576 1504 2576 1472
WIRE 2736 1504 2736 1472
WIRE 640 1520 640 1504
WIRE 1600 1520 1600 1504
WIRE 384 1584 384 1424
WIRE 832 1584 832 1424
WIRE 832 1584 384 1584
WIRE 1344 1584 1344 1424
WIRE 1792 1584 1792 1424
WIRE 1792 1584 1344 1584
WIRE 2064 1584 2064 1552
WIRE 1008 1632 1008 1424
WIRE 1968 1632 1968 1424
WIRE 1968 1632 1008 1632
FLAG 2016 112 0
FLAG 2016 -16 VDD
FLAG 2240 224 0
FLAG 2240 112 p1_1
FLAG 2432 224 0
FLAG 2432 112 p2_1
FLAG 80 528 0
FLAG 112 416 Vin
FLAG 2016 320 0
FLAG 2016 192 VCM
FLAG 2624 224 0
FLAG 2624 112 p1_2
FLAG 2816 224 0
FLAG 2816 112 p2_2
FLAG 2224 704 0
FLAG 2224 592 p1_3
FLAG 2416 704 0
FLAG 2416 592 p2_3
FLAG 2608 704 0
FLAG 2608 592 p1_4
FLAG 2800 704 0
FLAG 2800 592 p2_4
FLAG 336 288 VDD
FLAG 208 288 p1_1
FLAG 272 288 p2_1
FLAG 160 368 VCM
FLAG 640 336 VDD
FLAG 640 512 p2_1
FLAG 832 416 out1
FLAG 336 624 VDD
FLAG 208 624 p1_2
FLAG 272 624 p2_2
FLAG 160 752 Vin
FLAG 160 704 VCM
FLAG 640 672 VDD
FLAG 640 848 p2_2
FLAG 832 752 out2
FLAG 336 960 VDD
FLAG 208 960 p1_3
FLAG 272 960 p2_3
FLAG 160 1088 Vin
FLAG 160 1040 VCM
FLAG 640 1008 VDD
FLAG 640 1184 p2_3
FLAG 832 1088 out3
FLAG 512 1472 Vint
FLAG 336 1296 VDD
FLAG 208 1296 p1_4
FLAG 272 1296 p2_4
FLAG 160 1424 Vin
FLAG 160 1376 VCM
FLAG 640 1344 VDD
FLAG 640 1520 p2_4
FLAG 1296 288 VDD
FLAG 1168 288 p2_1
FLAG 1232 288 p1_1
FLAG 1120 416 Vin
FLAG 1120 368 VCM
FLAG 1600 336 VDD
FLAG 1600 512 p1_1
FLAG 1792 416 out5
FLAG 1296 624 VDD
FLAG 1168 624 p2_2
FLAG 1232 624 p1_2
FLAG 1120 752 Vin
FLAG 1120 704 VCM
FLAG 1600 672 VDD
FLAG 1600 848 p1_2
FLAG 1792 752 out6
FLAG 1296 960 VDD
FLAG 1168 960 p2_3
FLAG 1232 960 p1_3
FLAG 1120 1088 Vin
FLAG 1120 1040 VCM
FLAG 1600 1008 VDD
FLAG 1600 1184 p1_3
FLAG 1792 1088 out7
FLAG 1296 1296 VDD
FLAG 1168 1296 p2_4
FLAG 1232 1296 p1_4
FLAG 1120 1424 Vin
FLAG 1120 1376 VCM
FLAG 1600 1344 VDD
FLAG 1600 1520 p1_4
FLAG 1792 1424 out8
FLAG 832 1424 out4
FLAG 1344 368 Vsum
FLAG 1344 704 Vsum
FLAG 1344 1040 Vsum
FLAG 1344 1376 Vsum
FLAG 384 1376 Vsum
FLAG 384 1040 Vsum
FLAG 384 704 Vsum
FLAG 384 368 Vsum
FLAG 512 1136 Vint
FLAG 512 800 Vint
FLAG 512 464 Vint
FLAG 512 1376 VCM
FLAG 512 1040 VCM
FLAG 512 704 VCM
FLAG 512 368 VCM
FLAG 1472 1472 Vint
FLAG 1472 1376 VCM
FLAG 1472 1136 Vint
FLAG 1472 1040 VCM
FLAG 1472 800 Vint
FLAG 1472 704 VCM
FLAG 1472 464 Vint
FLAG 1472 368 VCM
FLAG 928 160 VCM
FLAG 1216 48 Vint
FLAG 928 16 Vsum
FLAG 2192 1040 0
FLAG 2192 928 c1
FLAG 2352 1040 0
FLAG 2352 928 c2
FLAG 2528 1040 0
FLAG 2528 928 c3
FLAG 2688 1040 0
FLAG 2688 928 c4
FLAG 2240 1504 0
FLAG 2240 1392 c5
FLAG 2400 1504 0
FLAG 2400 1392 c6
FLAG 2576 1504 0
FLAG 2576 1392 c7
FLAG 2736 1504 0
FLAG 2736 1392 c8
FLAG 1856 1376 VCM
FLAG 1904 1376 c8
FLAG 1968 1312 Vout
FLAG 896 368 VCM
FLAG 944 368 c1
FLAG 896 704 VCM
FLAG 944 704 c2
FLAG 896 1040 VCM
FLAG 944 1040 c3
FLAG 896 1376 VCM
FLAG 944 1376 c4
FLAG 1856 368 VCM
FLAG 1904 368 c5
FLAG 1856 704 VCM
FLAG 1904 704 c6
FLAG 1856 1040 VCM
FLAG 1904 1040 c7
FLAG 2064 1584 0
FLAG 1776 208 0
FLAG 1776 96 clk
FLAG 2064 1456 Voutf
FLAG 2032 1184 0
SYMBOL voltage 2016 -16 R0
WINDOW 0 48 35 Left 0
WINDOW 3 67 71 Left 0
SYMATTR InstName VDD
SYMATTR Value 1
SYMBOL voltage 2240 96 R0
WINDOW 0 36 42 Left 0
WINDOW 3 -52 207 VLeft 0
WINDOW 123 0 0 Left 0
WINDOW 39 0 0 Left 0
SYMATTR InstName Vp1_1
SYMATTR Value Pulse 0 1 0 100p 100p 4.8n 10n
SYMBOL voltage 2432 96 R0
WINDOW 0 36 42 Left 0
WINDOW 3 -52 207 VLeft 0
WINDOW 123 0 0 Left 0
WINDOW 39 0 0 Left 0
SYMATTR InstName Vp2_1
SYMATTR Value PULSE(0 1 5n 100p 100p 4.8n 10n)
SYMBOL voltage 80 416 R0
WINDOW 0 26 93 Left 0
WINDOW 123 0 0 Left 0
WINDOW 39 0 0 Left 0
WINDOW 3 -51 128 VLeft 0
SYMATTR InstName Vin
SYMATTR Value SINE(0.5 0.4 3MEG)
SYMBOL voltage 2016 192 R0
WINDOW 0 36 35 Left 0
WINDOW 3 43 76 Left 0
SYMATTR InstName VCM
SYMATTR Value 0.5
SYMBOL voltage 2624 96 R0
WINDOW 0 36 42 Left 0
WINDOW 3 -52 207 VLeft 0
WINDOW 123 0 0 Left 0
WINDOW 39 0 0 Left 0
SYMATTR InstName Vp1_2
SYMATTR Value Pulse 0 1 1.25n 100p 100p 4.8n 10n
SYMBOL voltage 2816 96 R0
WINDOW 0 36 42 Left 0
WINDOW 3 -52 207 VLeft 0
WINDOW 123 0 0 Left 0
WINDOW 39 0 0 Left 0
SYMATTR InstName Vp2_2
SYMATTR Value PULSE(0 1 6.25n 100p 100p 4.8n 10n)
SYMBOL voltage 2224 576 R0
WINDOW 0 36 42 Left 0
WINDOW 3 -52 207 VLeft 0
WINDOW 123 0 0 Left 0
WINDOW 39 0 0 Left 0
SYMATTR InstName Vp1_3
SYMATTR Value Pulse 0 1 2.5n 100p 100p 4.8n 10n
SYMBOL voltage 2416 576 R0
WINDOW 0 36 42 Left 0
WINDOW 3 -52 207 VLeft 0
WINDOW 123 0 0 Left 0
WINDOW 39 0 0 Left 0
SYMATTR InstName Vp2_3
SYMATTR Value PULSE(0 1 7.5n 100p 100p 4.8n 10n)
SYMBOL voltage 2608 576 R0
WINDOW 0 36 42 Left 0
WINDOW 3 -52 207 VLeft 0
WINDOW 123 0 0 Left 0
WINDOW 39 0 0 Left 0
SYMATTR InstName Vp1_4
SYMATTR Value Pulse 0 1 3.75n 100p 100p 4.8n 10n
SYMBOL voltage 2800 576 R0
WINDOW 0 36 42 Left 0
WINDOW 3 -52 207 VLeft 0
WINDOW 123 0 0 Left 0
WINDOW 39 0 0 Left 0
SYMATTR InstName Vp2_4
SYMATTR Value PULSE(0 1 8.75n 100p 100p 4.8n 10n)
SYMBOL Ideal_clocked_comparator 560 416 R0
SYMATTR InstName X1
SYMBOL Ideal_clocked_comparator 560 752 R0
SYMATTR InstName X2
SYMBOL Ideal_clocked_comparator 560 1088 R0
SYMATTR InstName X3
SYMBOL Ideal_clocked_comparator 560 1424 R0
SYMATTR InstName X4
SYMBOL Ideal_clocked_comparator 1520 416 R0
SYMATTR InstName X5
SYMBOL Ideal_clocked_comparator 1520 752 R0
SYMATTR InstName X6
SYMBOL Ideal_clocked_comparator 1520 1088 R0
SYMATTR InstName X7
SYMBOL Ideal_clocked_comparator 1520 1424 R0
SYMATTR InstName X8
SYMBOL SC_input_1 176 448 R0
SYMATTR InstName X9
SYMBOL SC_input_1 176 784 R0
SYMATTR InstName X10
SYMBOL SC_input_1 176 1120 R0
SYMATTR InstName X11
SYMBOL SC_input_1 176 1456 R0
SYMATTR InstName X12
SYMBOL SC_input_1 1136 1456 R0
SYMATTR InstName X13
SYMBOL SC_input_1 1136 1120 R0
SYMATTR InstName X14
SYMBOL SC_input_1 1136 784 R0
SYMATTR InstName X15
SYMBOL SC_input_1 1136 448 R0
SYMATTR InstName X16
SYMBOL Ideal_op_amp 976 112 R0
SYMATTR InstName X28
SYMBOL cap 1024 0 R270
WINDOW 0 32 32 VTop 0
WINDOW 3 0 32 VBottom 0
SYMATTR InstName C2
SYMATTR Value 400f
SYMBOL voltage 2192 912 R0
WINDOW 0 36 42 Left 0
WINDOW 3 -52 207 VLeft 0
WINDOW 123 0 0 Left 0
WINDOW 39 0 0 Left 0
SYMATTR InstName Vc1
SYMATTR Value PULSE(0 1 0 10p 10p 1.23n 10n)
SYMBOL voltage 2352 912 R0
WINDOW 0 36 42 Left 0
WINDOW 3 -52 207 VLeft 0
WINDOW 123 0 0 Left 0
WINDOW 39 0 0 Left 0
SYMATTR InstName Vc2
SYMATTR Value PULSE(0 1 1.25n 10p 10p 1.23n 10n)
SYMBOL voltage 2528 912 R0
WINDOW 0 36 42 Left 0
WINDOW 3 -52 207 VLeft 0
WINDOW 123 0 0 Left 0
WINDOW 39 0 0 Left 0
SYMATTR InstName Vc3
SYMATTR Value PULSE(0 1 2.5n 10p 10p 1.23n 10n)
SYMBOL voltage 2688 912 R0
WINDOW 0 36 42 Left 0
WINDOW 3 -52 207 VLeft 0
WINDOW 123 0 0 Left 0
WINDOW 39 0 0 Left 0
SYMATTR InstName Vc4
SYMATTR Value PULSE(0 1 3.75n 10p 10p 1.23n 10n)
SYMBOL voltage 2240 1376 R0
WINDOW 0 36 42 Left 0
WINDOW 3 -52 207 VLeft 0
WINDOW 123 0 0 Left 0
WINDOW 39 0 0 Left 0
SYMATTR InstName Vc5
SYMATTR Value Pulse 0 1 5n 10p 10p 1.23n 10n
SYMBOL voltage 2400 1376 R0
WINDOW 0 36 42 Left 0
WINDOW 3 -52 207 VLeft 0
WINDOW 123 0 0 Left 0
WINDOW 39 0 0 Left 0
SYMATTR InstName Vc6
SYMATTR Value Pulse 0 1 6.25n 10p 10p 1.23n 10n
SYMBOL voltage 2576 1376 R0
WINDOW 0 36 42 Left 0
WINDOW 3 -52 207 VLeft 0
WINDOW 123 0 0 Left 0
WINDOW 39 0 0 Left 0
SYMATTR InstName Vc7
SYMATTR Value Pulse 0 1 7.5n 10p 10p 1.23n 10n
SYMBOL voltage 2736 1376 R0
WINDOW 0 36 42 Left 0
WINDOW 3 -52 207 VLeft 0
WINDOW 123 0 0 Left 0
WINDOW 39 0 0 Left 0
SYMATTR InstName Vc8
SYMATTR Value Pulse 0 1 8.75n 10p 10p 1.23n 10n
SYMBOL sw 1824 1424 M90
WINDOW 3 24 -12 Left 0
WINDOW 38 40 36 Left 0
WINDOW 0 32 85 Left 0
SYMATTR Value ""
SYMATTR SpiceModel switmod
SYMATTR InstName S1
SYMBOL sw 864 416 M90
WINDOW 3 24 -12 Left 0
WINDOW 38 40 36 Left 0
WINDOW 0 32 85 Left 0
SYMATTR Value ""
SYMATTR SpiceModel switmod
SYMATTR InstName S2
SYMBOL sw 864 752 M90
WINDOW 3 24 -12 Left 0
WINDOW 38 40 36 Left 0
WINDOW 0 32 85 Left 0
SYMATTR Value ""
SYMATTR SpiceModel switmod
SYMATTR InstName S3
SYMBOL sw 864 1088 M90
WINDOW 3 24 -12 Left 0
WINDOW 38 40 36 Left 0
WINDOW 0 32 85 Left 0
SYMATTR Value ""
SYMATTR SpiceModel switmod
SYMATTR InstName S4
SYMBOL sw 864 1424 M90
WINDOW 3 24 -12 Left 0
WINDOW 38 40 36 Left 0
WINDOW 0 32 85 Left 0
SYMATTR Value ""
SYMATTR SpiceModel switmod
SYMATTR InstName S5
SYMBOL sw 1824 416 M90
WINDOW 3 24 -12 Left 0
WINDOW 38 40 36 Left 0
WINDOW 0 32 85 Left 0
SYMATTR Value ""
SYMATTR SpiceModel switmod
SYMATTR InstName S6
SYMBOL sw 1824 752 M90
WINDOW 3 24 -12 Left 0
WINDOW 38 40 36 Left 0
WINDOW 0 32 85 Left 0
SYMATTR Value ""
SYMATTR SpiceModel switmod
SYMATTR InstName S7
SYMBOL sw 1824 1088 M90
WINDOW 3 24 -12 Left 0
WINDOW 38 40 36 Left 0
WINDOW 0 32 85 Left 0
SYMATTR Value ""
SYMATTR SpiceModel switmod
SYMATTR InstName S8
SYMBOL cap 2048 1488 R0
SYMATTR InstName C1
SYMATTR Value 1p
SYMBOL voltage 1776 80 R0
WINDOW 0 36 42 Left 0
WINDOW 3 -52 207 VLeft 0
WINDOW 123 0 0 Left 0
WINDOW 39 0 0 Left 0
SYMATTR InstName Vc9
SYMATTR Value PULSE(0 1 625p 10p 10p 615p 1.25n)
SYMBOL res 2048 1312 R0
SYMATTR InstName R1
SYMATTR Value 10k
SYMBOL cap 2016 1088 R0
SYMATTR InstName C3
SYMATTR Value 10p
TEXT 408 128 Left 0 !.tran 0 3.1u 100n 10p uic
TEXT 408 160 Left 0 !.options plotwinsize=0
TEXT 408 96 Left 0 !.save v(vout) v(clk) v(vin) v(voutf)
TEXT 392 200 Left 0 !.model switmod SW
TEXT 2352 328 Left 0 ;Non-overlapping clocks
TEXT 2176 1152 Left 0 ;Steering clocks for output switches
