Version 4
SHEET 1 4188 2560
WIRE 896 -48 800 -48
WIRE 1088 -48 960 -48
WIRE 800 -16 800 -48
WIRE 1088 16 1088 -48
WIRE 800 32 800 -16
WIRE 1088 80 1088 16
WIRE 96 224 64 224
WIRE 144 224 96 224
WIRE 816 224 784 224
WIRE 864 224 816 224
WIRE 1776 224 1744 224
WIRE 1824 224 1776 224
WIRE 64 240 64 224
WIRE 1968 240 1968 224
WIRE 2160 240 2064 240
WIRE 2208 240 2208 224
WIRE 2448 240 2304 240
WIRE 624 320 624 304
WIRE 1584 320 1584 304
WIRE 2160 320 2160 240
WIRE 64 336 64 320
WIRE 2416 336 2352 336
WIRE 2512 368 2512 352
WIRE 2688 368 2608 368
WIRE 2704 368 2688 368
WIRE 368 384 368 224
WIRE 816 384 816 224
WIRE 816 384 368 384
WIRE 1328 384 1328 224
WIRE 1776 384 1776 224
WIRE 1776 384 1328 384
WIRE 2448 448 2448 240
WIRE 2464 448 2448 448
WIRE 2688 464 2656 464
WIRE 2704 464 2688 464
WIRE 2464 480 2448 480
WIRE 2208 496 2208 480
WIRE 2304 496 2304 432
WIRE 1968 512 1968 496
WIRE 2160 512 2160 352
WIRE 2160 512 2064 512
WIRE 816 560 784 560
WIRE 864 560 816 560
WIRE 1776 560 1744 560
WIRE 1824 560 1776 560
WIRE 2112 576 2112 336
WIRE 2160 576 2112 576
WIRE -80 592 -80 576
WIRE 2384 592 2352 592
WIRE 2160 608 2112 608
WIRE 2512 624 2512 608
WIRE 2608 624 2608 560
WIRE 624 656 624 640
WIRE 1584 656 1584 640
WIRE -80 704 -80 672
WIRE 2416 704 2416 336
WIRE 2464 704 2416 704
WIRE 368 720 368 560
WIRE 816 720 816 560
WIRE 816 720 368 720
WIRE 1328 720 1328 560
WIRE 1776 720 1776 560
WIRE 1776 720 1328 720
WIRE 2688 720 2656 720
WIRE 2704 720 2688 720
WIRE 1968 784 1968 768
WIRE 2160 784 2064 784
WIRE 2208 784 2208 768
WIRE 2448 784 2448 480
WIRE 2448 784 2304 784
WIRE -80 800 -80 784
WIRE 2160 864 2160 784
WIRE 2464 880 2464 736
WIRE 2464 880 2352 880
WIRE 2512 880 2512 864
WIRE 2608 880 2608 816
WIRE 816 896 784 896
WIRE 864 896 816 896
WIRE 1776 896 1744 896
WIRE 1824 896 1776 896
WIRE -80 912 -80 880
WIRE 2384 960 2384 592
WIRE 2464 960 2384 960
WIRE 2688 976 2656 976
WIRE 2704 976 2688 976
WIRE 624 992 624 976
WIRE 1584 992 1584 976
WIRE 2208 1040 2208 1024
WIRE 2304 1040 2304 976
WIRE 368 1056 368 896
WIRE 816 1056 816 896
WIRE 816 1056 368 1056
WIRE 1328 1056 1328 896
WIRE 1776 1056 1776 896
WIRE 1776 1056 1328 1056
WIRE 1968 1056 1968 1040
WIRE 2160 1056 2160 896
WIRE 2160 1056 2064 1056
WIRE 2112 1120 2112 880
WIRE 2160 1120 2112 1120
WIRE 2464 1136 2464 992
WIRE 2464 1136 2352 1136
WIRE 2160 1152 2112 1152
WIRE -32 1216 -32 1184
WIRE 816 1232 784 1232
WIRE 864 1232 816 1232
WIRE 1776 1232 1744 1232
WIRE 1824 1232 1776 1232
WIRE -32 1328 -32 1296
WIRE 624 1328 624 1312
WIRE 1584 1328 1584 1312
WIRE 368 1392 368 1232
WIRE 816 1392 816 1232
WIRE 816 1392 368 1392
WIRE 1328 1392 1328 1232
WIRE 1776 1392 1776 1232
WIRE 1776 1392 1328 1392
WIRE 3168 1472 3136 1472
WIRE 3424 1472 3392 1472
WIRE 3696 1472 3632 1472
WIRE 2672 1504 2624 1504
WIRE 2928 1504 2896 1504
WIRE 3168 1504 3136 1504
WIRE 3424 1504 3392 1504
WIRE 3696 1504 3632 1504
WIRE 2160 1536 2128 1536
WIRE 2416 1536 2384 1536
WIRE 2672 1536 2624 1536
WIRE 2928 1536 2896 1536
WIRE 3168 1536 3136 1536
WIRE 3424 1536 3392 1536
WIRE 3696 1536 3632 1536
WIRE 1920 1568 1888 1568
WIRE 2160 1568 2128 1568
WIRE 2416 1568 2384 1568
WIRE 2672 1568 2624 1568
WIRE 2928 1568 2896 1568
WIRE 3168 1568 3136 1568
WIRE 3424 1568 3392 1568
WIRE 3696 1568 3632 1568
WIRE 3920 1584 3888 1584
WIRE 3968 1584 3920 1584
WIRE 4096 1584 4048 1584
WIRE 1920 1600 1888 1600
WIRE 2160 1600 2128 1600
WIRE 2416 1600 2384 1600
WIRE 2672 1600 2624 1600
WIRE 2928 1600 2896 1600
WIRE 3168 1600 3136 1600
WIRE 3424 1600 3392 1600
WIRE 3696 1600 3632 1600
WIRE 4096 1616 4096 1584
WIRE 1920 1632 1888 1632
WIRE 2160 1632 2128 1632
WIRE 2416 1632 2384 1632
WIRE 2672 1632 2624 1632
WIRE 2928 1632 2896 1632
WIRE 3168 1632 3136 1632
WIRE 3424 1632 3392 1632
WIRE 3696 1632 3632 1632
WIRE 1920 1664 1888 1664
WIRE 2160 1664 2128 1664
WIRE 2416 1664 2384 1664
WIRE 2672 1664 2624 1664
WIRE 2928 1664 2896 1664
WIRE 3168 1664 3136 1664
WIRE 3424 1664 3392 1664
WIRE 3696 1664 3632 1664
WIRE 4096 1712 4096 1680
WIRE 1776 1744 1776 1728
WIRE 2016 1744 2016 1728
WIRE 2016 1744 1776 1744
WIRE 2320 1744 2272 1744
WIRE 0 1760 0 1728
WIRE 192 1760 192 1728
WIRE 384 1760 384 1728
WIRE 576 1760 576 1728
WIRE 752 1760 752 1728
WIRE 944 1760 944 1728
WIRE 1136 1760 1136 1728
WIRE 1328 1760 1328 1728
WIRE 2320 1760 2320 1744
WIRE 2512 1760 2512 1744
WIRE 2512 1760 2320 1760
WIRE 2784 1760 2784 1728
WIRE 2784 1760 2688 1760
WIRE 3024 1760 3024 1744
WIRE 3024 1760 2784 1760
WIRE 2016 1776 2016 1744
WIRE 2688 1792 2688 1760
WIRE 3280 1792 3280 1760
WIRE 3520 1792 3520 1776
WIRE 3520 1792 3280 1792
WIRE 2320 1808 2320 1760
WIRE 3280 1840 3280 1792
WIRE 2320 1856 2320 1808
WIRE 2688 1856 2688 1792
WIRE 3280 1856 3280 1840
WIRE 3280 1856 3216 1856
WIRE 2096 2016 2096 1888
WIRE 2320 2016 2320 1920
WIRE 2320 2016 2096 2016
WIRE 2464 2016 2464 1888
WIRE 2688 2016 2688 1920
WIRE 2688 2016 2464 2016
WIRE 2992 2016 2992 1888
WIRE 3216 2016 3216 1920
WIRE 3216 2016 2992 2016
FLAG -80 704 0
FLAG -80 576 VDD
FLAG 0 1760 0
FLAG 0 1648 p1_1
FLAG 192 1760 0
FLAG 192 1648 p2_1
FLAG 64 336 0
FLAG 96 224 Vin
FLAG -80 912 0
FLAG -80 784 VCM
FLAG 384 1760 0
FLAG 384 1648 p1_2
FLAG 576 1760 0
FLAG 576 1648 p2_2
FLAG 752 1760 0
FLAG 752 1648 p1_3
FLAG 944 1760 0
FLAG 944 1648 p2_3
FLAG 1136 1760 0
FLAG 1136 1648 p1_4
FLAG 1328 1760 0
FLAG 1328 1648 p2_4
FLAG 2064 976 0
FLAG 2064 1248 0
FLAG 1968 768 VDD
FLAG 1968 1040 VDD
FLAG 2208 768 VDD
FLAG 2208 1024 VDD
FLAG 2304 1232 0
FLAG 4096 1712 0
FLAG 4096 1584 out
FLAG 3920 1584 dout
FLAG 2064 432 0
FLAG 2064 704 0
FLAG 1968 224 VDD
FLAG 1968 496 VDD
FLAG 1920 320 out1
FLAG 1920 352 out2
FLAG 1920 592 out3
FLAG 1920 624 out4
FLAG 1920 864 out5
FLAG 1920 896 out6
FLAG 1920 1136 out7
FLAG 1920 1168 out8
FLAG 2208 224 VDD
FLAG 2208 480 VDD
FLAG 2304 688 0
FLAG 2512 864 VDD
FLAG 2608 1072 0
FLAG 2512 608 VDD
FLAG 2512 352 VDD
FLAG 2688 976 b0
FLAG 2688 720 b1
FLAG 2688 464 b2
FLAG 2688 368 b3
FLAG 1664 1632 b1
FLAG 1664 1600 b2
FLAG 1664 1568 b3
FLAG 3792 1424 VDD
FLAG 3808 1744 0
FLAG 3776 1744 VDD
FLAG -32 1328 0
FLAG -32 1184 8fs
FLAG 3696 1696 0
FLAG 2016 1776 8fs
FLAG 2016 1472 VDD
FLAG 2272 1440 VDD
FLAG 2208 1808 VDD
FLAG 2208 1968 8fs
FLAG 2320 1808 4fs
FLAG 2512 1440 VDD
FLAG 2576 1808 VDD
FLAG 2576 1968 4fs
FLAG 2688 1792 2fs
FLAG 2784 1440 VDD
FLAG 3024 1408 VDD
FLAG 3104 1808 VDD
FLAG 3104 1968 2fs
FLAG 3280 1408 VDD
FLAG 3520 1376 VDD
FLAG 3280 1840 fs
FLAG 1776 1488 VDD
FLAG 320 96 VDD
FLAG 192 96 p1_1
FLAG 256 96 p2_1
FLAG 144 176 VCM
FLAG 624 144 VDD
FLAG 624 320 p2_1
FLAG 816 224 out1
FLAG 320 432 VDD
FLAG 192 432 p1_2
FLAG 256 432 p2_2
FLAG 144 560 Vin
FLAG 144 512 VCM
FLAG 624 480 VDD
FLAG 624 656 p2_2
FLAG 816 560 out2
FLAG 320 768 VDD
FLAG 192 768 p1_3
FLAG 256 768 p2_3
FLAG 144 896 Vin
FLAG 144 848 VCM
FLAG 624 816 VDD
FLAG 624 992 p2_3
FLAG 816 896 out3
FLAG 496 1280 Vint
FLAG 320 1104 VDD
FLAG 192 1104 p1_4
FLAG 256 1104 p2_4
FLAG 144 1232 Vin
FLAG 144 1184 VCM
FLAG 624 1152 VDD
FLAG 624 1328 p2_4
FLAG 1280 96 VDD
FLAG 1152 96 p2_1
FLAG 1216 96 p1_1
FLAG 1104 224 Vin
FLAG 1104 176 VCM
FLAG 1584 144 VDD
FLAG 1584 320 p1_1
FLAG 1776 224 out5
FLAG 1280 432 VDD
FLAG 1152 432 p2_2
FLAG 1216 432 p1_2
FLAG 1104 560 Vin
FLAG 1104 512 VCM
FLAG 1584 480 VDD
FLAG 1584 656 p1_2
FLAG 1776 560 out6
FLAG 1280 768 VDD
FLAG 1152 768 p2_3
FLAG 1216 768 p1_3
FLAG 1104 896 Vin
FLAG 1104 848 VCM
FLAG 1584 816 VDD
FLAG 1584 992 p1_3
FLAG 1776 896 out7
FLAG 1280 1104 VDD
FLAG 1152 1104 p2_4
FLAG 1216 1104 p1_4
FLAG 1104 1232 Vin
FLAG 1104 1184 VCM
FLAG 1584 1152 VDD
FLAG 1584 1328 p1_4
FLAG 1776 1232 out8
FLAG 816 1232 out4
FLAG 1328 176 Vsum
FLAG 1328 512 Vsum
FLAG 1328 848 Vsum
FLAG 1328 1184 Vsum
FLAG 368 1184 Vsum
FLAG 368 848 Vsum
FLAG 368 512 Vsum
FLAG 368 176 Vsum
FLAG 496 944 Vint
FLAG 496 608 Vint
FLAG 496 272 Vint
FLAG 496 1184 VCM
FLAG 496 848 VCM
FLAG 496 512 VCM
FLAG 496 176 VCM
FLAG 1456 1280 Vint
FLAG 1456 1184 VCM
FLAG 1456 944 Vint
FLAG 1456 848 VCM
FLAG 1456 608 Vint
FLAG 1456 512 VCM
FLAG 1456 272 Vint
FLAG 1456 176 VCM
FLAG 800 128 VCM
FLAG 1088 16 Vint
FLAG 800 -16 Vsum
FLAG 1664 1664 b0
FLAG 3168 1696 0
FLAG 3424 1696 0
SYMBOL voltage -80 576 R0
WINDOW 0 48 35 Left 0
WINDOW 3 67 71 Left 0
SYMATTR InstName VDD
SYMATTR Value 1
SYMBOL voltage 0 1632 R0
WINDOW 0 36 42 Left 0
WINDOW 3 -52 207 VLeft 0
WINDOW 123 0 0 Left 0
WINDOW 39 0 0 Left 0
SYMATTR InstName Vp1_1
SYMATTR Value Pulse 0 1 0 100p 100p 4.8n 10n
SYMBOL voltage 192 1632 R0
WINDOW 0 36 42 Left 0
WINDOW 3 -52 207 VLeft 0
WINDOW 123 0 0 Left 0
WINDOW 39 0 0 Left 0
SYMATTR InstName Vp2_1
SYMATTR Value PULSE(0 1 5n 100p 100p 4.8n 10n)
SYMBOL voltage 64 224 R0
WINDOW 0 26 93 Left 0
WINDOW 123 0 0 Left 0
WINDOW 39 0 0 Left 0
WINDOW 3 -51 128 VLeft 0
SYMATTR InstName Vin
SYMATTR Value SINE(0.5 0.4 6.25MEG)
SYMBOL voltage -80 784 R0
WINDOW 0 36 35 Left 0
WINDOW 3 43 76 Left 0
SYMATTR InstName VCM
SYMATTR Value 0.5
SYMBOL voltage 384 1632 R0
WINDOW 0 36 42 Left 0
WINDOW 3 -52 207 VLeft 0
WINDOW 123 0 0 Left 0
WINDOW 39 0 0 Left 0
SYMATTR InstName Vp1_2
SYMATTR Value Pulse 0 1 1.25n 100p 100p 4.8n 10n
SYMBOL voltage 576 1632 R0
WINDOW 0 36 42 Left 0
WINDOW 3 -52 207 VLeft 0
WINDOW 123 0 0 Left 0
WINDOW 39 0 0 Left 0
SYMATTR InstName Vp2_2
SYMATTR Value PULSE(0 1 6.25n 100p 100p 4.8n 10n)
SYMBOL voltage 752 1632 R0
WINDOW 0 36 42 Left 0
WINDOW 3 -52 207 VLeft 0
WINDOW 123 0 0 Left 0
WINDOW 39 0 0 Left 0
SYMATTR InstName Vp1_3
SYMATTR Value Pulse 0 1 2.5n 100p 100p 4.8n 10n
SYMBOL voltage 944 1632 R0
WINDOW 0 36 42 Left 0
WINDOW 3 -52 207 VLeft 0
WINDOW 123 0 0 Left 0
WINDOW 39 0 0 Left 0
SYMATTR InstName Vp2_3
SYMATTR Value PULSE(0 1 7.5n 100p 100p 4.8n 10n)
SYMBOL voltage 1136 1632 R0
WINDOW 0 36 42 Left 0
WINDOW 3 -52 207 VLeft 0
WINDOW 123 0 0 Left 0
WINDOW 39 0 0 Left 0
SYMATTR InstName Vp1_4
SYMATTR Value Pulse 0 1 3.75n 100p 100p 4.8n 10n
SYMBOL voltage 1328 1632 R0
WINDOW 0 36 42 Left 0
WINDOW 3 -52 207 VLeft 0
WINDOW 123 0 0 Left 0
WINDOW 39 0 0 Left 0
SYMATTR InstName Vp2_4
SYMATTR Value PULSE(0 1 8.75n 100p 100p 4.8n 10n)
SYMBOL Adderbit 1936 960 R0
SYMATTR InstName X17
SYMBOL Adderbit 1936 1232 R0
SYMATTR InstName X18
SYMBOL Adderbit 2176 960 R0
SYMATTR InstName X19
SYMBOL Adderbit 2176 1216 R0
SYMATTR InstName X20
SYMBOL res 4064 1568 R90
WINDOW 0 0 56 VBottom 0
WINDOW 3 32 56 VTop 0
SYMATTR InstName R13
SYMATTR Value 100
SYMBOL cap 4080 1616 R0
SYMATTR InstName C1
SYMATTR Value 10p
SYMBOL Adderbit 1936 416 R0
SYMATTR InstName X21
SYMBOL Adderbit 1936 688 R0
SYMATTR InstName X22
SYMBOL Adderbit 2176 416 R0
SYMATTR InstName X23
SYMBOL Adderbit 2176 672 R0
SYMATTR InstName X24
SYMBOL Adderbit 2480 1056 R0
SYMATTR InstName X25
SYMBOL Adderbit 2480 800 R0
SYMATTR InstName X26
SYMBOL Adderbit 2480 544 R0
SYMATTR InstName X27
SYMBOL voltage -32 1200 R0
WINDOW 0 36 42 Left 0
WINDOW 3 -52 207 VLeft 0
WINDOW 123 0 0 Left 0
WINDOW 39 0 0 Left 0
SYMATTR InstName Vp1
SYMATTR Value PULSE(0 1 0 100p 100p 525p 1.25n)
SYMBOL Ideal_8_bit_DAC 3712 1728 R0
SYMATTR InstName X28
SYMBOL 4_bit_averager 1952 1712 R0
SYMATTR InstName X29
SYMBOL DFF 2128 1936 R0
SYMATTR InstName X32
SYMBOL DFF 2496 1936 R0
SYMATTR InstName X35
SYMBOL DFF 3024 1936 R0
SYMATTR InstName X38
SYMBOL 4_bit_register 1696 1696 R0
SYMATTR InstName X41
SYMBOL Ideal_clocked_comparator 544 224 R0
SYMATTR InstName X1
SYMBOL Ideal_clocked_comparator 544 560 R0
SYMATTR InstName X2
SYMBOL Ideal_clocked_comparator 544 896 R0
SYMATTR InstName X3
SYMBOL Ideal_clocked_comparator 544 1232 R0
SYMATTR InstName X4
SYMBOL Ideal_clocked_comparator 1504 224 R0
SYMATTR InstName X5
SYMBOL Ideal_clocked_comparator 1504 560 R0
SYMATTR InstName X6
SYMBOL Ideal_clocked_comparator 1504 896 R0
SYMATTR InstName X7
SYMBOL Ideal_clocked_comparator 1504 1232 R0
SYMATTR InstName X8
SYMBOL SC_input_1 160 256 R0
SYMATTR InstName X9
SYMBOL SC_input_1 160 592 R0
SYMATTR InstName X10
SYMBOL SC_input_1 160 928 R0
SYMATTR InstName X11
SYMBOL SC_input_1 160 1264 R0
SYMATTR InstName X12
SYMBOL SC_input_1 1120 1264 R0
SYMATTR InstName X13
SYMBOL SC_input_1 1120 928 R0
SYMATTR InstName X14
SYMBOL SC_input_1 1120 592 R0
SYMATTR InstName X15
SYMBOL SC_input_1 1120 256 R0
SYMATTR InstName X16
SYMBOL Ideal_op_amp 848 80 R0
SYMATTR InstName X42
SYMBOL cap 896 -32 R270
WINDOW 0 32 32 VTop 0
WINDOW 3 0 32 VBottom 0
SYMATTR InstName C2
SYMATTR Value 400f
SYMBOL 5_bit_register 2192 1712 R0
SYMATTR InstName X30
SYMBOL 5_bit_averager 2448 1712 R0
SYMATTR InstName X31
SYMBOL 6_bit_register 2704 1696 R0
SYMATTR InstName X33
SYMBOL 6_bit_averager 2960 1712 R0
SYMATTR InstName X34
SYMBOL 8_bit_register 3200 1728 R0
SYMATTR InstName X36
SYMBOL 8_bit_averager 3456 1744 R0
SYMATTR InstName X37
TEXT 1336 1448 Left 0 !.tran 0 500n 0 0.1n uic
TEXT 1320 1488 Left 0 !.options plotwinsize=0
TEXT 1632 1488 Left 0 ;4-bits
TEXT 2112 1480 Left 0 ;5-bits
TEXT 2368 1480 Left 0 ;5-bits
TEXT 2616 1472 Left 0 ;6-bits
TEXT 3120 1440 Left 0 ;7-bits
TEXT 2168 2040 Left 0 ;divide by 2
TEXT 2528 2032 Left 0 ;divide by 2
TEXT 3056 2048 Left 0 ;divide by 2
TEXT 3624 1392 Left 0 ;7-bits
TEXT 3352 1408 Left 0 ;7-bits
TEXT 3592 1336 Left 0 ;Multiply by 2, may have overflow for large signals
