Version 4
SHEET 1 880 1684
WIRE -608 -144 -656 -144
WIRE -656 -112 -656 -144
WIRE -800 48 -896 48
WIRE -768 48 -800 48
WIRE -896 64 -896 48
WIRE -624 64 -672 64
WIRE -800 80 -800 48
WIRE -672 96 -672 64
WIRE -800 160 -800 144
WIRE -112 160 -272 160
WIRE -896 176 -896 144
WIRE -112 192 -144 192
WIRE -112 240 -272 240
WIRE 288 256 176 256
WIRE 416 256 288 256
WIRE -640 272 -688 272
WIRE -144 272 -144 192
WIRE -112 272 -144 272
WIRE -688 304 -688 272
WIRE -112 320 -272 320
WIRE 240 320 176 320
WIRE -144 352 -144 272
WIRE -112 352 -144 352
WIRE -144 368 -144 352
WIRE 416 400 416 336
WIRE -1664 1088 -1840 1088
WIRE -1840 1104 -1840 1088
WIRE -1664 1120 -1696 1120
WIRE -1200 1184 -1376 1184
WIRE -1696 1200 -1696 1120
WIRE -1664 1200 -1696 1200
WIRE -1200 1216 -1200 1184
WIRE 16 1216 -144 1216
WIRE -1840 1232 -1840 1184
WIRE -1328 1248 -1376 1248
WIRE -96 1248 -144 1248
WIRE 304 1248 304 1232
WIRE 432 1248 432 1232
WIRE 576 1248 576 1232
WIRE -1696 1280 -1696 1200
WIRE -1664 1280 -1696 1280
WIRE -1696 1296 -1696 1280
WIRE 16 1296 -144 1296
WIRE -432 1312 -704 1312
WIRE -96 1328 -96 1248
WIRE -96 1328 -144 1328
WIRE -1200 1344 -1200 1296
WIRE -704 1376 -704 1312
WIRE -432 1376 -480 1376
WIRE 16 1376 -144 1376
WIRE 304 1376 304 1328
WIRE 432 1376 432 1328
WIRE 432 1376 304 1376
WIRE 576 1376 576 1328
WIRE 576 1376 432 1376
WIRE -96 1408 -96 1328
WIRE -96 1408 -144 1408
WIRE -96 1472 -96 1408
WIRE 432 1472 432 1376
WIRE -704 1488 -704 1456
FLAG 416 400 0
FLAG -144 368 0
FLAG -272 320 W
FLAG 288 256 shaft
FLAG 240 320 Pos
FLAG -656 -32 0
FLAG -608 -144 U
FLAG -672 176 0
FLAG -624 64 V
FLAG -688 384 0
FLAG -640 272 W
FLAG -272 160 U
FLAG -272 240 V
FLAG -768 48 f
FLAG -896 176 0
FLAG -800 160 0
FLAG -1200 1344 0
FLAG -1696 1296 0
FLAG -1840 1232 0
FLAG -704 1488 0
FLAG -96 1472 0
FLAG 16 1216 gen_U
FLAG 16 1296 gen_V
FLAG 16 1376 gen_W
FLAG 432 1472 0
FLAG 304 1232 gen_U
FLAG 432 1232 gen_V
FLAG 576 1232 gen_W
SYMBOL motor_3 16 256 R0
WINDOW 39 -109 -142 Left 0
SYMATTR SpiceLine L_Leak=1 R={R} Kt=1 IP=1 Inertia=100m
SYMATTR InstName X2
SYMBOL res 400 240 R0
SYMATTR InstName R1
SYMATTR Value 10meg
SYMBOL bv -656 -128 R0
SYMATTR InstName B1
SYMATTR Value V=cos(v(f)*2*pi)*100
SYMBOL bv -672 80 R0
SYMATTR InstName B2
SYMATTR Value V=cos(v(f)*2*pi+2*pi/3)*100
SYMBOL bv -688 288 R0
SYMATTR InstName B3
SYMATTR Value V=cos(v(f)*2*pi+4*pi/3)*100
SYMBOL current -896 144 R180
WINDOW 0 24 88 Left 0
WINDOW 3 24 0 Left 0
WINDOW 123 0 0 Left 0
WINDOW 39 0 0 Left 0
SYMATTR InstName I1
SYMATTR Value PWL(0 0 10 0 40 200m)
SYMBOL cap -816 80 R0
SYMATTR InstName C2
SYMATTR Value 1
SYMBOL motor_3 -1536 1184 R0
WINDOW 39 -111 -145 Left 0
SYMATTR SpiceLine L_Leak=1m R=1m Kt=3
SYMATTR InstName X1
SYMBOL current -1840 1184 R180
WINDOW 0 24 88 Left 0
WINDOW 3 24 0 Left 0
WINDOW 123 0 0 Left 0
WINDOW 39 0 0 Left 0
SYMATTR InstName I2
SYMATTR Value 2
SYMBOL res -1216 1200 R0
SYMATTR InstName R2
SYMATTR Value 1m
SYMBOL motor_3 -272 1312 M0
WINDOW 39 -111 -145 Left 0
SYMATTR SpiceLine L_Leak=1m R=1m Kt=3
SYMATTR InstName X3
SYMBOL voltage -704 1360 R0
WINDOW 123 0 0 Left 0
WINDOW 39 0 0 Left 0
SYMATTR InstName V1
SYMATTR Value PWL(0 0 10 0 60 3)
SYMBOL res 288 1232 R0
SYMATTR InstName R3
SYMATTR Value {Rgen}
SYMBOL res 416 1232 R0
SYMATTR InstName R4
SYMATTR Value {Rgen}
SYMBOL res 560 1232 R0
SYMATTR InstName R5
SYMATTR Value {Rgen}
TEXT -1000 800 Left 0 !.tran 100
TEXT 344 192 Left 0 !.ic V(shaft)=0
TEXT -432 496 Left 0 !.param R=100
TEXT 320 1576 Left 0 !.param Rgen=3
TEXT 72 1016 Left 0 ;This uses PMAC as a generator
TEXT -1904 1400 Left 0 ;This verifies the Kt constant, to convert constant current to torque
TEXT -272 -168 Left 0 ;Here three phase voltage source (with variable frequency) is used to drive \nthe PMAC motor. This is absolutely a bad idea in real world...
TEXT -744 1064 Left 0 ;Note that the shaft voltage equals to shaft rotation speed (radians per second)\nand the shaft current equals to shaft torque in Newton-meters
RECTANGLE Normal 816 1648 -848 960 2
RECTANGLE Normal -1072 1440 -1936 1008 3
RECTANGLE Normal 656 576 -1264 -336 3
