Version 4
SHEET 1 1564 680
WIRE 288 -16 288 -48
WIRE 288 0 288 -16
WIRE 656 32 592 32
WIRE 656 112 592 112
WIRE 800 -160 784 -160
WIRE 848 -160 800 -160
WIRE 896 -64 896 -144
WIRE 960 -64 896 -64
WIRE 960 16 944 16
WIRE 960 16 960 -64
WIRE 1072 -160 1056 -160
WIRE 1120 -160 1072 -160
WIRE 1168 64 1168 -144
WIRE 1168 192 1168 160
WIRE 1232 64 1168 64
WIRE 1232 144 1216 144
WIRE 1232 144 1232 64
WIRE 1312 16 960 16
WIRE 1312 144 1232 144
WIRE 1360 -64 1360 -160
WIRE 1360 64 1360 32
WIRE 1360 192 1360 160
WIRE 1472 -160 1360 -160
WIRE 1472 -128 1472 -160
WIRE 1472 -32 1472 -48
FLAG 288 80 0
FLAG 288 -16 VDD
FLAG 512 -32 VDD
FLAG 512 176 0
FLAG 656 32 Vbiasp
FLAG 656 112 Vbiasn
FLAG 1168 112 0
FLAG 1168 192 0
FLAG 1472 -32 0
FLAG 896 -16 0
FLAG 1360 112 0
FLAG 1360 192 0
FLAG 1360 -16 0
FLAG 896 -192 VDD
FLAG 896 -240 VDD
FLAG 800 -160 Vbiasp
FLAG 896 32 0
FLAG 1168 -192 VDD
FLAG 1168 -240 VDD
FLAG 1072 -160 Vbiasp
SYMBOL voltage 288 -16 R0
WINDOW 123 0 0 Left 0
WINDOW 39 0 0 Left 0
SYMATTR InstName VDD
SYMATTR Value 5
SYMBOL nmos4 1216 64 M0
WINDOW 123 56 100 Left 0
SYMATTR Value2 l=2u w=10u
SYMATTR InstName M1
SYMATTR Value N_1u
SYMBOL voltage 1472 -144 R0
SYMATTR InstName Vo
SYMATTR Value 0
SYMBOL Fig_20_15 448 80 R0
SYMATTR InstName U1
SYMBOL nmos4 944 -64 M0
WINDOW 123 92 48 Left 0
WINDOW 0 65 15 Left 0
SYMATTR Value2 l=8u w=10u
SYMATTR InstName MWS
SYMATTR Value N_1u
SYMBOL nmos4 1312 64 R0
WINDOW 123 56 100 Left 0
SYMATTR Value2 l=2u w=10u
SYMATTR InstName M2
SYMATTR Value N_1u
SYMBOL nmos4 1312 -64 R0
WINDOW 123 56 100 Left 0
SYMATTR Value2 l=2u w=10u
SYMATTR InstName M4
SYMATTR Value N_1u
SYMBOL pmos4 848 -240 R0
WINDOW 0 59 16 Left 0
WINDOW 123 57 100 Left 0
SYMATTR InstName M5
SYMATTR Value2 l=2u w=30u
SYMATTR Value P_1u
SYMBOL pmos4 1120 -240 R0
WINDOW 0 59 16 Left 0
WINDOW 123 57 100 Left 0
SYMATTR InstName M6
SYMATTR Value2 l=2u w=30u
SYMATTR Value P_1u
TEXT 264 248 Left 0 !.lib cmosedu_models.txt
TEXT 552 -128 Left 0 ;Plot Id(M4)
TEXT 600 200 Left 0 !.dc Vo 150m 5 1m
