Version 4
SHEET 1 3684 1904
WIRE -2736 144 -2832 144
WIRE -2224 144 -2736 144
WIRE -2768 176 -2832 176
WIRE -2256 176 -2768 176
WIRE -2800 208 -2832 208
WIRE -2288 208 -2800 208
WIRE -2288 224 -2288 208
WIRE -2256 224 -2256 176
WIRE -2224 224 -2224 144
WIRE -2336 272 -2432 272
WIRE -2336 304 -2528 304
WIRE -2336 320 -2496 320
WIRE -2112 320 -2176 320
WIRE -2336 336 -2464 336
WIRE -2336 352 -2432 352
WIRE -2528 384 -2528 304
WIRE -2528 384 -2624 384
WIRE -2336 384 -2384 384
WIRE -2496 416 -2496 320
WIRE -2496 416 -2624 416
WIRE -2464 448 -2464 336
WIRE -2464 448 -2624 448
WIRE -2384 448 -2384 384
WIRE -2432 480 -2432 352
WIRE -2432 480 -2624 480
WIRE -2272 480 -2272 432
WIRE -2160 480 -2272 480
WIRE -2240 528 -2240 432
WIRE -2160 528 -2240 528
WIRE -2272 576 -2272 480
WIRE -2240 576 -2240 528
WIRE -2384 624 -2384 528
WIRE -2336 624 -2384 624
WIRE -2432 656 -2432 480
WIRE -2336 656 -2432 656
WIRE -2464 672 -2464 448
WIRE -2336 672 -2464 672
WIRE -2496 688 -2496 416
WIRE -2336 688 -2496 688
WIRE -2112 688 -2176 688
WIRE -2528 704 -2528 384
WIRE -2336 704 -2528 704
WIRE -2336 736 -2432 736
WIRE -2800 800 -2800 208
WIRE -2288 800 -2288 784
WIRE -2288 800 -2800 800
WIRE -2768 832 -2768 176
WIRE -2256 832 -2256 784
WIRE -2256 832 -2768 832
WIRE -2736 864 -2736 144
WIRE -2224 864 -2224 784
WIRE -2224 864 -2736 864
FLAG -2832 208 VDD
IOPIN -2832 208 BiDir
FLAG -2832 176 Vbiasp
IOPIN -2832 176 BiDir
FLAG -2832 144 Vg
IOPIN -2832 144 BiDir
FLAG -2432 272 Ip
IOPIN -2432 272 BiDir
FLAG -2432 736 Im
IOPIN -2432 736 BiDir
FLAG -2160 528 VpCM
IOPIN -2160 528 BiDir
FLAG -2112 320 Op
IOPIN -2112 320 BiDir
FLAG -2112 688 Om
IOPIN -2112 688 BiDir
FLAG -2160 480 VSS
IOPIN -2160 480 BiDir
FLAG -2624 384 b3
IOPIN -2624 384 BiDir
FLAG -2624 416 b2
IOPIN -2624 416 BiDir
FLAG -2624 448 b1
IOPIN -2624 448 BiDir
FLAG -2624 480 b0
IOPIN -2624 480 BiDir
SYMBOL CCII -2320 240 R0
SYMATTR InstName X2
SYMBOL CCII -2320 768 M180
SYMATTR InstName X3
SYMBOL res -2400 432 R0
SYMATTR InstName R1
SYMATTR Value 5k
