Version 4
SHEET 1 3964 1992
WIRE -208 -464 -208 -480
WIRE -96 -464 -96 -480
WIRE -208 -448 -208 -464
WIRE -96 -448 -96 -464
WIRE 304 -432 304 -448
WIRE 336 -432 336 -448
WIRE 368 -432 368 -448
WIRE 400 -432 400 -448
WIRE 720 -432 720 -448
WIRE 752 -432 752 -448
WIRE 784 -432 784 -448
WIRE 816 -432 816 -448
WIRE 1184 -432 1184 -448
WIRE 1216 -432 1216 -448
WIRE 1248 -432 1248 -448
WIRE 1280 -432 1280 -448
WIRE 1648 -432 1648 -448
WIRE 1680 -432 1680 -448
WIRE 1712 -432 1712 -448
WIRE 1744 -432 1744 -448
WIRE -624 -400 -640 -400
WIRE -592 -400 -624 -400
WIRE -416 -400 -448 -400
WIRE -384 -400 -416 -400
WIRE 304 -400 304 -432
WIRE 336 -400 336 -432
WIRE 368 -400 368 -432
WIRE 400 -400 400 -432
WIRE 720 -400 720 -432
WIRE 752 -400 752 -432
WIRE 784 -400 784 -432
WIRE 816 -400 816 -432
WIRE 1184 -400 1184 -432
WIRE 1216 -400 1216 -432
WIRE 1248 -400 1248 -432
WIRE 1280 -400 1280 -432
WIRE 1648 -400 1648 -432
WIRE 1680 -400 1680 -432
WIRE 1712 -400 1712 -432
WIRE 1744 -400 1744 -432
WIRE -2080 -384 -2160 -384
WIRE -2032 -384 -2080 -384
WIRE -2160 -352 -2160 -384
WIRE -624 -352 -640 -352
WIRE -592 -352 -624 -352
WIRE -416 -352 -448 -352
WIRE -384 -352 -416 -352
WIRE 208 -352 192 -352
WIRE 240 -352 208 -352
WIRE 496 -352 464 -352
WIRE 512 -352 496 -352
WIRE 624 -352 608 -352
WIRE 656 -352 624 -352
WIRE 896 -352 880 -352
WIRE 928 -352 896 -352
WIRE 1088 -352 1072 -352
WIRE 1120 -352 1088 -352
WIRE 1360 -352 1344 -352
WIRE 1392 -352 1360 -352
WIRE 1552 -352 1536 -352
WIRE 1584 -352 1552 -352
WIRE 1840 -352 1808 -352
WIRE 1856 -352 1840 -352
WIRE -2240 -336 -2336 -336
WIRE -2208 -336 -2240 -336
WIRE -208 -336 -208 -368
WIRE -96 -336 -96 -368
WIRE -2336 -304 -2336 -336
WIRE 2784 -304 2736 -304
WIRE 2848 -304 2784 -304
WIRE -2208 -288 -2256 -288
WIRE -1792 -288 -1792 -304
WIRE -1680 -288 -1680 -304
WIRE -1552 -288 -1552 -304
WIRE -1424 -288 -1424 -304
WIRE -1168 -288 -1168 -304
WIRE -1056 -288 -1056 -304
WIRE -928 -288 -928 -304
WIRE -1792 -272 -1792 -288
WIRE -1680 -272 -1680 -288
WIRE -1552 -272 -1552 -288
WIRE -1424 -272 -1424 -288
WIRE -1168 -272 -1168 -288
WIRE -1056 -272 -1056 -288
WIRE -928 -272 -928 -288
WIRE 2736 -272 2736 -304
WIRE 320 -256 320 -288
WIRE 384 -256 384 -288
WIRE 736 -256 736 -288
WIRE 800 -256 800 -288
WIRE 1200 -256 1200 -288
WIRE 1264 -256 1264 -288
WIRE 1664 -256 1664 -288
WIRE 1728 -256 1728 -288
WIRE 2656 -256 2624 -256
WIRE 2688 -256 2656 -256
WIRE -2160 -240 -2160 -272
WIRE -2080 -240 -2160 -240
WIRE -2032 -240 -2080 -240
WIRE 320 -240 320 -256
WIRE 384 -240 384 -256
WIRE 736 -240 736 -256
WIRE 800 -240 800 -256
WIRE 1200 -240 1200 -256
WIRE 1264 -240 1264 -256
WIRE 1664 -240 1664 -256
WIRE 1728 -240 1728 -256
WIRE -2160 -208 -2160 -240
WIRE 2656 -208 2624 -208
WIRE 2688 -208 2656 -208
WIRE -2240 -192 -2240 -336
WIRE -2208 -192 -2240 -192
WIRE -368 -176 -528 -176
WIRE -240 -176 -368 -176
WIRE -2336 -160 -2336 -224
WIRE -1792 -160 -1792 -192
WIRE -1680 -160 -1680 -192
WIRE -1552 -160 -1552 -192
WIRE -1424 -160 -1424 -192
WIRE -1168 -160 -1168 -192
WIRE -1056 -160 -1056 -192
WIRE -928 -160 -928 -192
WIRE -240 -160 -240 -176
WIRE 2736 -160 2736 -192
WIRE -2256 -144 -2256 -288
WIRE -2208 -144 -2256 -144
WIRE -528 -128 -528 -176
WIRE -144 -128 -160 -128
WIRE -112 -128 -144 -128
WIRE 528 -128 528 -144
WIRE 560 -128 560 -144
WIRE 592 -128 592 -144
WIRE 624 -128 624 -144
WIRE 992 -128 992 -144
WIRE 1024 -128 1024 -144
WIRE 1056 -128 1056 -144
WIRE 1088 -128 1088 -144
WIRE 1440 -128 1440 -144
WIRE 1472 -128 1472 -144
WIRE 1504 -128 1504 -144
WIRE 1536 -128 1536 -144
WIRE -2256 -112 -2256 -144
WIRE -2160 -96 -2160 -128
WIRE -2080 -96 -2160 -96
WIRE -2032 -96 -2080 -96
WIRE -432 -96 -464 -96
WIRE -416 -96 -432 -96
WIRE -144 -96 -160 -96
WIRE -112 -96 -144 -96
WIRE 528 -96 528 -128
WIRE 560 -96 560 -128
WIRE 592 -96 592 -128
WIRE 624 -96 624 -128
WIRE 992 -96 992 -128
WIRE 1024 -96 1024 -128
WIRE 1056 -96 1056 -128
WIRE 1088 -96 1088 -128
WIRE 1440 -96 1440 -128
WIRE 1472 -96 1472 -128
WIRE 1504 -96 1504 -128
WIRE 1536 -96 1536 -128
WIRE -608 -80 -640 -80
WIRE -592 -80 -608 -80
WIRE -304 -80 -336 -80
WIRE -288 -80 -304 -80
WIRE -432 -64 -464 -64
WIRE -416 -64 -432 -64
WIRE -144 -64 -160 -64
WIRE -112 -64 -144 -64
WIRE 448 -48 416 -48
WIRE 464 -48 448 -48
WIRE 704 -48 688 -48
WIRE 752 -48 704 -48
WIRE 896 -48 864 -48
WIRE 928 -48 896 -48
WIRE 1168 -48 1152 -48
WIRE 1200 -48 1168 -48
WIRE 1344 -48 1328 -48
WIRE 1376 -48 1344 -48
WIRE 1616 -48 1600 -48
WIRE 1648 -48 1616 -48
WIRE -432 -32 -464 -32
WIRE -416 -32 -432 -32
WIRE -144 -32 -160 -32
WIRE -112 -32 -144 -32
WIRE -608 -16 -640 -16
WIRE -592 -16 -608 -16
WIRE -304 -16 -336 -16
WIRE -288 -16 -304 -16
WIRE -432 0 -464 0
WIRE -416 0 -432 0
WIRE -144 0 -160 0
WIRE -112 0 -144 0
WIRE -144 32 -160 32
WIRE -112 32 -144 32
WIRE 544 48 544 16
WIRE 608 48 608 16
WIRE 1008 48 1008 16
WIRE 1456 48 1456 16
WIRE 1520 48 1520 16
WIRE 544 64 544 48
WIRE 608 64 608 48
WIRE 1008 64 1008 48
WIRE 1072 64 1072 16
WIRE 1456 64 1456 48
WIRE 1520 64 1520 48
WIRE -528 80 -528 32
WIRE -368 80 -528 80
WIRE -240 80 -240 64
WIRE -240 80 -368 80
WIRE -1760 176 -1760 160
WIRE -1728 176 -1728 160
WIRE 1520 192 1520 176
WIRE 1536 192 1536 176
WIRE -1760 208 -1760 176
WIRE -1728 208 -1728 176
WIRE 1520 224 1520 192
WIRE 1536 224 1536 192
WIRE -1600 256 -1648 256
WIRE 1472 256 1280 256
WIRE 1616 256 1568 256
WIRE 1648 256 1616 256
WIRE -1856 288 -2112 288
WIRE -1024 288 -1024 272
WIRE -992 288 -992 272
WIRE 768 288 768 272
WIRE 800 288 800 272
WIRE 2944 288 2944 272
WIRE 2976 288 2976 272
WIRE -1024 320 -1024 288
WIRE -992 320 -992 288
WIRE 768 320 768 288
WIRE 800 320 800 288
WIRE 1520 320 1520 288
WIRE 2944 320 2944 288
WIRE 2976 320 2976 288
WIRE -1488 336 -1648 336
WIRE -2400 352 -2400 336
WIRE -2368 352 -2368 336
WIRE -2352 352 -2352 336
WIRE -2336 352 -2336 336
WIRE -2320 352 -2320 336
WIRE -2288 352 -2288 336
WIRE 1520 352 1520 320
WIRE -1104 368 -1184 368
WIRE 688 368 640 368
WIRE 2864 368 2704 368
WIRE -2400 384 -2400 352
WIRE -2368 384 -2368 352
WIRE -2352 384 -2352 352
WIRE -2336 384 -2336 352
WIRE -2320 384 -2320 352
WIRE -2288 384 -2288 352
WIRE 1472 384 1392 384
WIRE 1616 384 1568 384
WIRE 1648 384 1616 384
WIRE -736 400 -896 400
WIRE 960 400 896 400
WIRE 1184 400 960 400
WIRE 3120 400 3072 400
WIRE 3392 400 3120 400
WIRE -1760 416 -1760 384
WIRE -1728 416 -1728 384
WIRE -1760 432 -1760 416
WIRE -1728 432 -1728 416
WIRE 1520 432 1520 416
WIRE 1536 432 1536 416
WIRE -2480 448 -2496 448
WIRE -2448 448 -2480 448
WIRE -1104 448 -1296 448
WIRE 688 448 576 448
WIRE 2864 448 2784 448
WIRE -2208 464 -2240 464
WIRE -2192 464 -2208 464
WIRE 1520 464 1520 432
WIRE 1536 464 1536 432
WIRE -2480 480 -2496 480
WIRE -2448 480 -2480 480
WIRE -2112 496 -2112 288
WIRE -2112 496 -2240 496
WIRE -1744 496 -2112 496
WIRE -2480 512 -2496 512
WIRE -2448 512 -2480 512
WIRE -1024 528 -1024 496
WIRE -992 528 -992 496
WIRE 768 528 768 496
WIRE 800 528 800 496
WIRE 2944 528 2944 496
WIRE 2976 528 2976 496
WIRE -1024 544 -1024 528
WIRE -992 544 -992 528
WIRE 768 544 768 528
WIRE 800 544 800 528
WIRE 2944 544 2944 528
WIRE 2976 544 2976 528
WIRE 464 560 464 544
WIRE 480 560 480 544
WIRE 1520 560 1520 544
WIRE 1536 560 1536 544
WIRE 2592 560 2592 544
WIRE 2608 560 2608 544
WIRE 3728 560 3728 544
WIRE 3744 560 3744 544
WIRE 464 592 464 560
WIRE 480 592 480 560
WIRE 1520 592 1520 560
WIRE 1536 592 1536 560
WIRE 2592 592 2592 560
WIRE 2608 592 2608 560
WIRE 3728 592 3728 560
WIRE 3744 592 3744 560
WIRE -2400 624 -2400 576
WIRE -2032 624 -2400 624
WIRE -1840 624 -2032 624
WIRE -1600 624 -1600 256
WIRE -1600 624 -1840 624
WIRE -1184 624 -1184 368
WIRE -1008 624 -1184 624
WIRE -928 624 -1008 624
WIRE -640 624 -928 624
WIRE -272 624 -640 624
WIRE 416 624 336 624
WIRE 640 624 640 368
WIRE 640 624 512 624
WIRE 752 624 640 624
WIRE 1072 624 752 624
WIRE 1280 624 1280 256
WIRE 1280 624 1072 624
WIRE 1472 624 1280 624
WIRE 1824 624 1568 624
WIRE 2544 624 2464 624
WIRE 2704 624 2704 368
WIRE 2704 624 2640 624
WIRE 2912 624 2704 624
WIRE 3168 624 2912 624
WIRE 3488 624 3168 624
WIRE 3680 624 3488 624
WIRE 3824 624 3776 624
WIRE 3856 624 3824 624
WIRE 464 688 464 656
WIRE 1520 688 1520 656
WIRE 2592 688 2592 656
WIRE 3728 688 3728 656
WIRE 464 720 464 688
WIRE 1520 720 1520 688
WIRE 2592 720 2592 688
WIRE 3728 720 3728 688
WIRE -2288 752 -2288 576
WIRE -2048 752 -2288 752
WIRE -1952 752 -2048 752
WIRE -1488 752 -1488 336
WIRE -1488 752 -1952 752
WIRE -1296 752 -1296 448
WIRE -1024 752 -1296 752
WIRE -816 752 -1024 752
WIRE -528 752 -816 752
WIRE -160 752 -528 752
WIRE 416 752 224 752
WIRE 576 752 576 448
WIRE 576 752 512 752
WIRE 864 752 576 752
WIRE 1056 752 864 752
WIRE 1392 752 1392 384
WIRE 1392 752 1056 752
WIRE 1472 752 1392 752
WIRE 1936 752 1568 752
WIRE 2544 752 2352 752
WIRE 2784 752 2784 448
WIRE 2784 752 2640 752
WIRE 3024 752 2784 752
WIRE 3168 752 3024 752
WIRE 3600 752 3168 752
WIRE 3680 752 3600 752
WIRE 3824 752 3776 752
WIRE 3856 752 3824 752
WIRE 464 800 464 784
WIRE 480 800 480 784
WIRE 1520 800 1520 784
WIRE 1536 800 1536 784
WIRE 2592 800 2592 784
WIRE 2608 800 2608 784
WIRE 3728 800 3728 784
WIRE 3744 800 3744 784
WIRE 464 832 464 800
WIRE 480 832 480 800
WIRE 1520 832 1520 800
WIRE 1536 832 1536 800
WIRE 2592 832 2592 800
WIRE 2608 832 2608 800
WIRE 3728 832 3728 800
WIRE 3744 832 3744 800
WIRE -2400 896 -2400 624
WIRE -2400 896 -2528 896
WIRE -2288 896 -2288 752
WIRE -2160 896 -2288 896
WIRE 224 896 224 752
WIRE 224 896 48 896
WIRE 336 896 336 624
WIRE 560 896 336 896
WIRE 1392 896 1392 752
WIRE 1392 896 1088 896
WIRE 2352 896 2352 752
WIRE 2352 896 2144 896
WIRE 2464 896 2464 624
WIRE 2688 896 2464 896
WIRE 3600 896 3600 752
WIRE 3600 896 3280 896
WIRE -2368 928 -2368 912
WIRE -2352 928 -2352 912
WIRE -2336 928 -2336 912
WIRE -2320 928 -2320 912
WIRE -1568 928 -1568 912
WIRE -1552 928 -1552 912
WIRE -1536 928 -1536 912
WIRE -1520 928 -1520 912
WIRE -1264 928 -1264 912
WIRE -1248 928 -1248 912
WIRE -1232 928 -1232 912
WIRE -1216 928 -1216 912
WIRE -240 928 -240 912
WIRE -224 928 -224 912
WIRE -208 928 -208 912
WIRE -192 928 -192 912
WIRE 256 928 256 912
WIRE 272 928 272 912
WIRE 288 928 288 912
WIRE 304 928 304 912
WIRE 1280 928 1280 624
WIRE 1600 928 1280 928
WIRE 1856 928 1856 912
WIRE 1872 928 1872 912
WIRE 1888 928 1888 912
WIRE 1904 928 1904 912
WIRE 2384 928 2384 912
WIRE 2400 928 2400 912
WIRE 2416 928 2416 912
WIRE 2432 928 2432 912
WIRE 3488 928 3488 624
WIRE 3808 928 3488 928
WIRE -2400 960 -2400 896
WIRE -2368 960 -2368 928
WIRE -2352 960 -2352 928
WIRE -2336 960 -2336 928
WIRE -2320 960 -2320 928
WIRE -2288 960 -2288 896
WIRE -1952 960 -1952 752
WIRE -1840 960 -1840 624
WIRE -1600 960 -1600 624
WIRE -1568 960 -1568 928
WIRE -1552 960 -1552 928
WIRE -1536 960 -1536 928
WIRE -1520 960 -1520 928
WIRE -1488 960 -1488 752
WIRE -1296 960 -1296 752
WIRE -1264 960 -1264 928
WIRE -1248 960 -1248 928
WIRE -1232 960 -1232 928
WIRE -1216 960 -1216 928
WIRE -1184 960 -1184 624
WIRE -928 960 -928 624
WIRE -816 960 -816 752
WIRE -640 960 -640 624
WIRE -528 960 -528 752
WIRE -272 960 -272 624
WIRE -240 960 -240 928
WIRE -224 960 -224 928
WIRE -208 960 -208 928
WIRE -192 960 -192 928
WIRE -160 960 -160 752
WIRE 224 960 224 896
WIRE 256 960 256 928
WIRE 272 960 272 928
WIRE 288 960 288 928
WIRE 304 960 304 928
WIRE 336 960 336 896
WIRE 752 960 752 624
WIRE 864 960 864 752
WIRE 1280 960 1280 928
WIRE 1392 960 1392 896
WIRE 1824 960 1824 624
WIRE 1856 960 1856 928
WIRE 1872 960 1872 928
WIRE 1888 960 1888 928
WIRE 1904 960 1904 928
WIRE 1936 960 1936 752
WIRE 2352 960 2352 896
WIRE 2384 960 2384 928
WIRE 2400 960 2400 928
WIRE 2416 960 2416 928
WIRE 2432 960 2432 928
WIRE 2464 960 2464 896
WIRE 2912 960 2912 624
WIRE 3024 960 3024 752
WIRE 3488 960 3488 928
WIRE 3600 960 3600 896
WIRE 560 1008 560 896
WIRE -2480 1024 -2496 1024
WIRE -2448 1024 -2480 1024
WIRE -2032 1024 -2048 1024
WIRE -2000 1024 -2032 1024
WIRE -1680 1024 -1696 1024
WIRE -1648 1024 -1680 1024
WIRE -1104 1024 -1136 1024
WIRE -1088 1024 -1104 1024
WIRE -1008 1024 -1024 1024
WIRE -976 1024 -1008 1024
WIRE -448 1024 -480 1024
WIRE -432 1024 -448 1024
WIRE -352 1024 -368 1024
WIRE -320 1024 -352 1024
WIRE 48 1024 48 896
WIRE 416 1024 384 1024
WIRE 448 1024 416 1024
WIRE 672 1024 656 1024
WIRE 704 1024 672 1024
WIRE 1088 1024 1088 896
WIRE 1472 1024 1440 1024
WIRE 1488 1024 1472 1024
WIRE 1600 1024 1600 928
WIRE 1744 1024 1728 1024
WIRE 1776 1024 1744 1024
WIRE 2144 1024 2144 896
WIRE 2544 1024 2512 1024
WIRE 2560 1024 2544 1024
WIRE 2688 1024 2688 896
WIRE 2832 1024 2816 1024
WIRE 2864 1024 2832 1024
WIRE 3280 1024 3280 896
WIRE 3680 1024 3648 1024
WIRE 3696 1024 3680 1024
WIRE 3808 1024 3808 928
WIRE -2208 1040 -2240 1040
WIRE -2192 1040 -2208 1040
WIRE -1744 1040 -1744 496
WIRE -1744 1040 -1792 1040
WIRE -1408 1040 -1440 1040
WIRE -1344 1040 -1408 1040
WIRE -736 1040 -736 400
WIRE -736 1040 -768 1040
WIRE -688 1040 -736 1040
WIRE -80 1040 -112 1040
WIRE -64 1040 -80 1040
WIRE 160 1040 144 1040
WIRE 176 1040 160 1040
WIRE 960 1040 960 400
WIRE 960 1040 912 1040
WIRE 1184 1040 1184 400
WIRE 1232 1040 1184 1040
WIRE 2000 1040 1984 1040
WIRE 2016 1040 2000 1040
WIRE 2272 1040 2256 1040
WIRE 2304 1040 2272 1040
WIRE 3120 1040 3120 400
WIRE 3120 1040 3072 1040
WIRE 3392 1040 3392 400
WIRE 3440 1040 3392 1040
WIRE -2480 1056 -2496 1056
WIRE -2448 1056 -2480 1056
WIRE -2032 1056 -2048 1056
WIRE -2000 1056 -2032 1056
WIRE -1680 1056 -1696 1056
WIRE -1648 1056 -1680 1056
WIRE -1104 1056 -1136 1056
WIRE -1088 1056 -1104 1056
WIRE -1008 1056 -1024 1056
WIRE -976 1056 -1008 1056
WIRE -448 1056 -480 1056
WIRE -432 1056 -448 1056
WIRE -352 1056 -368 1056
WIRE -320 1056 -352 1056
WIRE 416 1056 384 1056
WIRE 448 1056 416 1056
WIRE 512 1056 480 1056
WIRE 528 1056 512 1056
WIRE 608 1056 592 1056
WIRE 624 1056 608 1056
WIRE 672 1056 656 1056
WIRE 704 1056 672 1056
WIRE 1472 1056 1440 1056
WIRE 1488 1056 1472 1056
WIRE 1744 1056 1728 1056
WIRE 1776 1056 1744 1056
WIRE 2544 1056 2512 1056
WIRE 2560 1056 2544 1056
WIRE 2832 1056 2816 1056
WIRE 2864 1056 2832 1056
WIRE 3680 1056 3648 1056
WIRE 3696 1056 3680 1056
WIRE -2112 1072 -2112 496
WIRE -2112 1072 -2240 1072
WIRE -1760 1072 -1792 1072
WIRE -1744 1072 -1760 1072
WIRE -1392 1072 -1440 1072
WIRE -1344 1072 -1392 1072
WIRE -736 1072 -768 1072
WIRE -688 1072 -736 1072
WIRE -64 1072 -112 1072
WIRE 0 1072 -32 1072
WIRE 16 1072 0 1072
WIRE 96 1072 80 1072
WIRE 112 1072 96 1072
WIRE 176 1072 144 1072
WIRE 512 1072 480 1072
WIRE 528 1072 512 1072
WIRE 944 1072 912 1072
WIRE 960 1072 944 1072
WIRE 1040 1072 1008 1072
WIRE 1056 1072 1040 1072
WIRE 1136 1072 1120 1072
WIRE 1152 1072 1136 1072
WIRE 1216 1072 1184 1072
WIRE 1232 1072 1216 1072
WIRE 1552 1072 1520 1072
WIRE 1568 1072 1552 1072
WIRE 1648 1072 1632 1072
WIRE 2016 1072 1984 1072
WIRE 2096 1072 2064 1072
WIRE 2112 1072 2096 1072
WIRE 2192 1072 2176 1072
WIRE 2208 1072 2192 1072
WIRE 2304 1072 2256 1072
WIRE 2640 1072 2608 1072
WIRE 2656 1072 2640 1072
WIRE 2736 1072 2720 1072
WIRE 2752 1072 2736 1072
WIRE 3120 1072 3072 1072
WIRE 3232 1072 3200 1072
WIRE 3248 1072 3232 1072
WIRE 3328 1072 3312 1072
WIRE 3344 1072 3328 1072
WIRE 3408 1072 3392 1072
WIRE 3440 1072 3408 1072
WIRE 3760 1072 3744 1072
WIRE 3776 1072 3760 1072
WIRE 3856 1072 3840 1072
WIRE 3872 1072 3856 1072
WIRE -2480 1088 -2496 1088
WIRE -2448 1088 -2480 1088
WIRE -2032 1088 -2048 1088
WIRE -2000 1088 -2032 1088
WIRE -1680 1088 -1696 1088
WIRE -1648 1088 -1680 1088
WIRE -1104 1088 -1136 1088
WIRE -1088 1088 -1104 1088
WIRE -1008 1088 -1024 1088
WIRE -976 1088 -1008 1088
WIRE -448 1088 -480 1088
WIRE -432 1088 -448 1088
WIRE -352 1088 -368 1088
WIRE -320 1088 -352 1088
WIRE 0 1088 -32 1088
WIRE 16 1088 0 1088
WIRE 416 1088 384 1088
WIRE 448 1088 416 1088
WIRE 672 1088 656 1088
WIRE 704 1088 672 1088
WIRE 1040 1088 1008 1088
WIRE 1056 1088 1040 1088
WIRE 1472 1088 1440 1088
WIRE 1488 1088 1472 1088
WIRE 1552 1088 1520 1088
WIRE 1568 1088 1552 1088
WIRE 1744 1088 1728 1088
WIRE 1776 1088 1744 1088
WIRE 2096 1088 2064 1088
WIRE 2112 1088 2096 1088
WIRE 2544 1088 2512 1088
WIRE 2560 1088 2544 1088
WIRE 2640 1088 2608 1088
WIRE 2656 1088 2640 1088
WIRE 2832 1088 2816 1088
WIRE 2864 1088 2832 1088
WIRE 3232 1088 3200 1088
WIRE 3248 1088 3232 1088
WIRE 3680 1088 3648 1088
WIRE 3696 1088 3680 1088
WIRE 3760 1088 3744 1088
WIRE 3776 1088 3760 1088
WIRE -2400 1168 -2400 1152
WIRE -2160 1168 -2160 896
WIRE -2160 1168 -2400 1168
WIRE -1920 1184 -1920 1152
WIRE -1904 1184 -1904 1152
WIRE -1888 1184 -1888 1152
WIRE -1872 1184 -1872 1152
WIRE -896 1184 -896 1152
WIRE -880 1184 -880 1152
WIRE -864 1184 -864 1152
WIRE -848 1184 -848 1152
WIRE -608 1184 -608 1152
WIRE -592 1184 -592 1152
WIRE -576 1184 -576 1152
WIRE -560 1184 -560 1152
WIRE 48 1184 48 1120
WIRE 336 1184 336 1152
WIRE 336 1184 48 1184
WIRE 784 1184 784 1152
WIRE 800 1184 800 1152
WIRE 816 1184 816 1152
WIRE 832 1184 832 1152
WIRE 1312 1184 1312 1152
WIRE 1328 1184 1328 1152
WIRE 1344 1184 1344 1152
WIRE 1360 1184 1360 1152
WIRE 2352 1184 2352 1152
WIRE 2688 1184 2688 1120
WIRE 2688 1184 2352 1184
WIRE 2944 1184 2944 1152
WIRE 2960 1184 2960 1152
WIRE 2976 1184 2976 1152
WIRE 2992 1184 2992 1152
WIRE 3520 1184 3520 1152
WIRE 3536 1184 3536 1152
WIRE 3552 1184 3552 1152
WIRE 3568 1184 3568 1152
WIRE -2528 1200 -2528 896
WIRE -2288 1200 -2288 1152
WIRE -2288 1200 -2528 1200
WIRE -1920 1200 -1920 1184
WIRE -1904 1200 -1904 1184
WIRE -1888 1200 -1888 1184
WIRE -1872 1200 -1872 1184
WIRE -896 1200 -896 1184
WIRE -880 1200 -880 1184
WIRE -864 1200 -864 1184
WIRE -848 1200 -848 1184
WIRE -608 1200 -608 1184
WIRE -592 1200 -592 1184
WIRE -576 1200 -576 1184
WIRE -560 1200 -560 1184
WIRE 784 1200 784 1184
WIRE 800 1200 800 1184
WIRE 816 1200 816 1184
WIRE 832 1200 832 1184
WIRE 1312 1200 1312 1184
WIRE 1328 1200 1328 1184
WIRE 1344 1200 1344 1184
WIRE 1360 1200 1360 1184
WIRE 2944 1200 2944 1184
WIRE 2960 1200 2960 1184
WIRE 2976 1200 2976 1184
WIRE 2992 1200 2992 1184
WIRE 3520 1200 3520 1184
WIRE 3536 1200 3536 1184
WIRE 3552 1200 3552 1184
WIRE 3568 1200 3568 1184
WIRE 224 1216 224 1152
WIRE 560 1216 560 1104
WIRE 560 1216 224 1216
WIRE 1088 1216 1088 1120
WIRE 1280 1216 1280 1152
WIRE 1280 1216 1088 1216
WIRE 1392 1216 1392 1152
WIRE 1600 1216 1600 1120
WIRE 1600 1216 1392 1216
WIRE 2144 1216 2144 1120
WIRE 2464 1216 2464 1152
WIRE 2464 1216 2144 1216
WIRE 3280 1216 3280 1120
WIRE 3488 1216 3488 1152
WIRE 3488 1216 3280 1216
WIRE 3600 1216 3600 1152
WIRE 3808 1216 3808 1120
WIRE 3808 1216 3600 1216
WIRE 464 1296 464 1280
WIRE 480 1296 480 1280
WIRE 1520 1296 1520 1280
WIRE 1536 1296 1536 1280
WIRE 2592 1296 2592 1280
WIRE 2608 1296 2608 1280
WIRE 464 1328 464 1296
WIRE 480 1328 480 1296
WIRE 1520 1328 1520 1296
WIRE 1536 1328 1536 1296
WIRE 2592 1328 2592 1296
WIRE 2608 1328 2608 1296
WIRE -1952 1360 -1952 1152
WIRE -1664 1360 -1952 1360
WIRE -1600 1360 -1600 1152
WIRE -1600 1360 -1664 1360
WIRE -1296 1360 -1296 1152
WIRE -1296 1360 -1600 1360
WIRE -928 1360 -928 1152
WIRE -928 1360 -1296 1360
WIRE -528 1360 -528 1152
WIRE -368 1360 -528 1360
WIRE -272 1360 -272 1152
WIRE -272 1360 -368 1360
WIRE 224 1360 224 1216
WIRE 224 1360 -272 1360
WIRE 416 1360 224 1360
WIRE 752 1360 752 1152
WIRE 752 1360 512 1360
WIRE 1392 1360 1392 1216
WIRE 1472 1360 1392 1360
WIRE 1696 1360 1568 1360
WIRE 1824 1360 1824 1152
WIRE 1824 1360 1696 1360
WIRE 2096 1360 1824 1360
WIRE 2352 1360 2352 1184
WIRE 2352 1360 2096 1360
WIRE 2544 1360 2352 1360
WIRE 2912 1360 2912 1152
WIRE 2912 1360 2640 1360
WIRE 464 1424 464 1392
WIRE 1520 1424 1520 1392
WIRE 2592 1424 2592 1392
WIRE 464 1456 464 1424
WIRE 1520 1456 1520 1424
WIRE 2592 1456 2592 1424
WIRE -1840 1488 -1840 1152
WIRE -1664 1488 -1840 1488
WIRE -1488 1488 -1488 1152
WIRE -1488 1488 -1664 1488
WIRE -1184 1488 -1184 1152
WIRE -1184 1488 -1488 1488
WIRE -816 1488 -816 1152
WIRE -816 1488 -1184 1488
WIRE -640 1488 -640 1152
WIRE -368 1488 -640 1488
WIRE -160 1488 -160 1152
WIRE -160 1488 -368 1488
WIRE 336 1488 336 1184
WIRE 336 1488 -160 1488
WIRE 416 1488 336 1488
WIRE 864 1488 864 1152
WIRE 864 1488 512 1488
WIRE 1280 1488 1280 1216
WIRE 1472 1488 1280 1488
WIRE 1632 1488 1568 1488
WIRE 1936 1488 1936 1152
WIRE 1936 1488 1632 1488
WIRE 2080 1488 1936 1488
WIRE 2464 1488 2464 1216
WIRE 2464 1488 2080 1488
WIRE 2544 1488 2464 1488
WIRE 3024 1488 3024 1152
WIRE 3024 1488 2640 1488
WIRE 464 1536 464 1520
WIRE 480 1536 480 1520
WIRE 1520 1536 1520 1520
WIRE 1536 1536 1536 1520
WIRE 2592 1536 2592 1520
WIRE 2608 1536 2608 1520
WIRE -1680 1568 -1680 1552
WIRE -1648 1568 -1648 1552
WIRE -368 1568 -368 1552
WIRE -336 1568 -336 1552
WIRE 464 1568 464 1536
WIRE 480 1568 480 1536
WIRE 1520 1568 1520 1536
WIRE 1536 1568 1536 1536
WIRE 1840 1568 1840 1552
WIRE 1872 1568 1872 1552
WIRE 2592 1568 2592 1536
WIRE 2608 1568 2608 1536
WIRE -1680 1600 -1680 1568
WIRE -1648 1600 -1648 1568
WIRE -368 1600 -368 1568
WIRE -336 1600 -336 1568
WIRE 1840 1600 1840 1568
WIRE 1872 1600 1872 1568
WIRE 464 1616 464 1600
WIRE 480 1616 480 1600
WIRE -1952 1648 -1952 1360
WIRE -1760 1648 -1952 1648
WIRE -528 1648 -528 1360
WIRE -448 1648 -528 1648
WIRE 464 1648 464 1616
WIRE 480 1648 480 1616
WIRE 1696 1648 1696 1360
WIRE 1760 1648 1696 1648
WIRE 2592 1648 2592 1632
WIRE 2608 1648 2608 1632
WIRE -1392 1680 -1392 1072
WIRE -1392 1680 -1552 1680
WIRE -64 1680 -64 1072
WIRE -64 1680 -240 1680
WIRE 144 1680 144 1072
WIRE 144 1680 -64 1680
WIRE 224 1680 224 1360
WIRE 416 1680 224 1680
WIRE 560 1680 512 1680
WIRE 592 1680 560 1680
WIRE 2016 1680 2016 1072
WIRE 2016 1680 1968 1680
WIRE 2256 1680 2256 1072
WIRE 2256 1680 2016 1680
WIRE 2592 1680 2592 1648
WIRE 2608 1680 2608 1648
WIRE 2352 1712 2352 1360
WIRE 2544 1712 2352 1712
WIRE 2688 1712 2640 1712
WIRE 2720 1712 2688 1712
WIRE -1840 1728 -1840 1488
WIRE -1760 1728 -1840 1728
WIRE -640 1728 -640 1488
WIRE -448 1728 -640 1728
WIRE 1632 1728 1632 1488
WIRE 1760 1728 1632 1728
WIRE 464 1744 464 1712
WIRE 464 1776 464 1744
WIRE 2592 1776 2592 1744
WIRE -1680 1808 -1680 1776
WIRE -1648 1808 -1648 1776
WIRE -368 1808 -368 1776
WIRE -336 1808 -336 1776
WIRE 336 1808 336 1488
WIRE 416 1808 336 1808
WIRE 560 1808 512 1808
WIRE 592 1808 560 1808
WIRE 1840 1808 1840 1776
WIRE 1872 1808 1872 1776
WIRE 2592 1808 2592 1776
WIRE -1680 1824 -1680 1808
WIRE -1648 1824 -1648 1808
WIRE -368 1824 -368 1808
WIRE -336 1824 -336 1808
WIRE 1840 1824 1840 1808
WIRE 1872 1824 1872 1808
WIRE 2464 1840 2464 1488
WIRE 2544 1840 2464 1840
WIRE 2688 1840 2640 1840
WIRE 2720 1840 2688 1840
WIRE 464 1856 464 1840
WIRE 480 1856 480 1840
WIRE 464 1888 464 1856
WIRE 480 1888 480 1856
WIRE 2592 1888 2592 1872
WIRE 2608 1888 2608 1872
WIRE 2592 1920 2592 1888
WIRE 2608 1920 2608 1888
FLAG -1168 -160 0
FLAG -1168 -288 VDD
FLAG -1056 -160 0
FLAG -1056 -288 VSS
FLAG -624 -400 VDD
FLAG -624 -352 VSS
FLAG -416 -400 Vbiasp
FLAG -416 -352 Vg
FLAG -2256 -112 0
FLAG -928 -160 0
FLAG -928 -288 Vcmref
FLAG -2080 -384 Ip
FLAG -2080 -96 Im
FLAG -2080 -240 Vcmref
FLAG 2656 -256 Op
FLAG 2656 -208 Om
FLAG 2784 -304 Out
FLAG 2736 -160 0
FLAG -2336 -160 0
FLAG -2368 352 b3
FLAG -2352 352 b2
FLAG -2336 352 b1
FLAG -2320 352 b0
FLAG -2208 464 VSS
FLAG -2480 448 VDD
FLAG -2480 480 Vbiasp
FLAG -2480 512 Vg
FLAG -2400 352 Ip
FLAG -2288 352 Im
FLAG -2368 928 b3
FLAG -2352 928 b2
FLAG -2336 928 b1
FLAG -2320 928 b0
FLAG -2480 1024 VDD
FLAG -2480 1056 Vbiasp
FLAG -2480 1088 Vg
FLAG -2208 1040 VSS
FLAG -1792 -160 0
FLAG -1792 -288 b3
FLAG -1680 -160 0
FLAG -1680 -288 b2
FLAG -1552 -160 0
FLAG -1552 -288 b1
FLAG -1424 -160 0
FLAG -1424 -288 b0
FLAG -1920 1184 b3
FLAG -1904 1184 b2
FLAG -1888 1184 b1
FLAG -1872 1184 b0
FLAG -2032 1088 VDD
FLAG -2032 1056 Vbiasp
FLAG -2032 1024 Vg
FLAG -1760 1072 VSS
FLAG -1568 928 b3
FLAG -1552 928 b2
FLAG -1536 928 b1
FLAG -1520 928 b0
FLAG -1680 1024 VDD
FLAG -1680 1056 Vbiasp
FLAG -1680 1088 Vg
FLAG -1408 1040 VSS
FLAG -1216 928 b3
FLAG -1232 928 b2
FLAG -1248 928 b1
FLAG -1264 928 b0
FLAG -1104 1024 VDD
FLAG -1104 1056 Vbiasp
FLAG -1104 1088 Vg
FLAG -896 1184 b3
FLAG -880 1184 b2
FLAG -864 1184 b1
FLAG -848 1184 b0
FLAG -1008 1088 VDD
FLAG -1008 1056 Vbiasp
FLAG -1008 1024 Vg
FLAG -736 1072 VSS
FLAG -560 1184 b3
FLAG -576 1184 b2
FLAG -592 1184 b1
FLAG -608 1184 b0
FLAG -448 1088 VDD
FLAG -448 1056 Vbiasp
FLAG -448 1024 Vg
FLAG -240 928 b3
FLAG -224 928 b2
FLAG -208 928 b1
FLAG -192 928 b0
FLAG -352 1024 VDD
FLAG -352 1056 Vbiasp
FLAG -352 1088 Vg
FLAG 304 928 b3
FLAG 288 928 b2
FLAG 272 928 b1
FLAG 256 928 b0
FLAG 416 1024 VDD
FLAG 416 1056 Vbiasp
FLAG 416 1088 Vg
FLAG 160 1040 VSS
FLAG 784 1184 b3
FLAG 800 1184 b2
FLAG 816 1184 b1
FLAG 832 1184 b0
FLAG 672 1088 VDD
FLAG 672 1056 Vbiasp
FLAG 672 1024 Vg
FLAG 944 1072 VSS
FLAG 1360 1184 b3
FLAG 1344 1184 b2
FLAG 1328 1184 b1
FLAG 1312 1184 b0
FLAG 1472 1088 VDD
FLAG 1472 1056 Vbiasp
FLAG 1472 1024 Vg
FLAG -1728 176 VDD
FLAG -1760 176 Vcmref
FLAG -1760 416 Vbiasp
FLAG -1728 416 VSS
FLAG -1024 288 VDD
FLAG -992 288 Vcmref
FLAG -992 528 Vbiasp
FLAG -1024 528 VSS
FLAG 768 288 VDD
FLAG 800 288 Vcmref
FLAG 800 528 Vbiasp
FLAG 768 528 VSS
FLAG -368 1568 VDD
FLAG -336 1568 Vcmref
FLAG -336 1808 Vbiasp
FLAG -368 1808 VSS
FLAG -1680 1568 VDD
FLAG -1648 1568 Vcmref
FLAG -1648 1808 Vbiasp
FLAG -1680 1808 VSS
FLAG 1856 928 b3
FLAG 1872 928 b2
FLAG 1888 928 b1
FLAG 1904 928 b0
FLAG 1744 1024 VDD
FLAG 1744 1056 Vbiasp
FLAG 1744 1088 Vg
FLAG 2432 928 b3
FLAG 2416 928 b2
FLAG 2400 928 b1
FLAG 2384 928 b0
FLAG 2544 1024 VDD
FLAG 2544 1056 Vbiasp
FLAG 2544 1088 Vg
FLAG 2000 1040 VSS
FLAG 2944 1184 b3
FLAG 2960 1184 b2
FLAG 2976 1184 b1
FLAG 2992 1184 b0
FLAG 2832 1088 VDD
FLAG 2832 1056 Vbiasp
FLAG 2832 1024 Vg
FLAG 3120 1072 VSS
FLAG 3568 1184 b3
FLAG 3552 1184 b2
FLAG 3536 1184 b1
FLAG 3520 1184 b0
FLAG 3680 1088 VDD
FLAG 3680 1056 Vbiasp
FLAG 3680 1024 Vg
FLAG 2944 288 VDD
FLAG 2976 288 Vcmref
FLAG 2976 528 Vbiasp
FLAG 2944 528 VSS
FLAG 1840 1568 VDD
FLAG 1872 1568 Vcmref
FLAG 1872 1808 Vbiasp
FLAG 1840 1808 VSS
FLAG 464 688 VSS
FLAG 464 560 VDD
FLAG 480 560 K567
FLAG 464 800 VDD
FLAG 480 800 K567
FLAG 464 1424 VSS
FLAG 464 1296 VDD
FLAG 480 1296 K567
FLAG 464 1536 VDD
FLAG 480 1536 K567
FLAG 1520 688 VSS
FLAG 1520 560 VDD
FLAG 1536 560 K67
FLAG 1520 800 VDD
FLAG 1536 800 K67
FLAG 1520 1424 VSS
FLAG 1520 1296 VDD
FLAG 1536 1296 K67
FLAG 1520 1536 VDD
FLAG 1536 1536 K67
FLAG 2592 688 VSS
FLAG 2592 560 VDD
FLAG 2608 560 K7
FLAG 2592 800 VDD
FLAG 2608 800 K7
FLAG 2592 1424 VSS
FLAG 2592 1296 VDD
FLAG 2608 1296 K7
FLAG 2592 1536 VDD
FLAG 2608 1536 K7
FLAG 96 1072 VSS
FLAG 0 1072 VDD
FLAG 0 1088 K4
FLAG -80 1040 VSS
FLAG 608 1056 VSS
FLAG 512 1056 VDD
FLAG 512 1072 K4
FLAG 1136 1072 VSS
FLAG 1040 1072 VDD
FLAG 1040 1088 K5
FLAG 1216 1072 VSS
FLAG 1648 1072 VSS
FLAG 1552 1072 VDD
FLAG 1552 1088 K5
FLAG 2192 1072 VSS
FLAG 2096 1072 VDD
FLAG 2096 1088 K6
FLAG 2736 1072 VSS
FLAG 2640 1072 VDD
FLAG 2640 1088 K6
FLAG 2272 1040 VSS
FLAG 3328 1072 VSS
FLAG 3232 1072 VDD
FLAG 3232 1088 K7
FLAG 3856 1072 VSS
FLAG 3760 1072 VDD
FLAG 3760 1088 K7
FLAG 3408 1072 VSS
FLAG -208 -336 0
FLAG -208 -464 A1
FLAG -96 -336 0
FLAG -96 -464 A0
FLAG -608 -80 A1
FLAG -608 -16 A0
FLAG -432 -96 Sel4
FLAG -432 -64 Sel5
FLAG -432 -32 Sel6
FLAG -432 0 Sel7
FLAG -304 -80 A1
FLAG -304 -16 A0
FLAG -144 -128 K4
FLAG -144 -96 K5
FLAG -144 -64 K6
FLAG -144 -32 K7
FLAG -144 0 K567
FLAG -144 32 K67
FLAG 304 -432 Sel4
FLAG 336 -432 Sel5
FLAG 368 -432 Sel6
FLAG 400 -432 Sel7
FLAG 208 -352 C1p
FLAG 496 -352 C1m
FLAG 624 -352 C2p
FLAG 896 -352 C2m
FLAG 1088 -352 C3p
FLAG 1360 -352 C3m
FLAG 1552 -352 C4p
FLAG 1840 -352 C4m
FLAG 1344 -48 C7p
FLAG 1616 -48 C7m
FLAG 896 -48 C6p
FLAG 1168 -48 C6m
FLAG 448 -48 C5p
FLAG 704 -48 C5m
FLAG 720 -432 Sel4
FLAG 752 -432 Sel5
FLAG 784 -432 Sel6
FLAG 816 -432 Sel7
FLAG 1184 -432 Sel4
FLAG 1216 -432 Sel5
FLAG 1248 -432 Sel6
FLAG 1280 -432 Sel7
FLAG 1648 -432 Sel4
FLAG 1680 -432 Sel5
FLAG 1712 -432 Sel6
FLAG 1744 -432 Sel7
FLAG 528 -128 Sel4
FLAG 560 -128 Sel5
FLAG 592 -128 Sel6
FLAG 624 -128 Sel7
FLAG 992 -128 Sel4
FLAG 1024 -128 Sel5
FLAG 1056 -128 Sel6
FLAG 1088 -128 Sel7
FLAG 1440 -128 Sel4
FLAG 1472 -128 Sel5
FLAG 1504 -128 Sel6
FLAG 1536 -128 Sel7
FLAG -2032 624 C1p
FLAG -2048 752 C1m
FLAG -1008 624 C3p
FLAG -1024 752 C3m
FLAG 1072 624 C5p
FLAG 1056 752 C5m
FLAG 3168 624 C7p
FLAG 3168 752 C7m
FLAG 2096 1360 C6p
FLAG 2080 1488 C6m
FLAG -368 1360 C4p
FLAG -368 1488 C4m
FLAG -1664 1360 C2p
FLAG -1664 1488 C2m
FLAG 464 1744 VSS
FLAG 464 1616 VDD
FLAG 480 1616 K4
FLAG 464 1856 VDD
FLAG 480 1856 K4
FLAG 560 1680 Op
FLAG 560 1808 Om
FLAG 1520 320 VSS
FLAG 1520 192 VDD
FLAG 1536 192 K5
FLAG 1520 432 VDD
FLAG 1536 432 K5
FLAG 1616 256 Op
FLAG 1616 384 Om
FLAG 2592 1776 VSS
FLAG 2592 1648 VDD
FLAG 2608 1648 K6
FLAG 2592 1888 VDD
FLAG 2608 1888 K6
FLAG 2688 1712 Op
FLAG 2688 1840 Om
FLAG 3728 688 VSS
FLAG 3728 560 VDD
FLAG 3744 560 K7
FLAG 3728 800 VDD
FLAG 3744 800 K7
FLAG 3824 624 Op
FLAG 3824 752 Om
FLAG -368 -176 VDD
FLAG -368 80 VSS
FLAG 320 -256 VDD
FLAG 736 -256 VDD
FLAG 1200 -256 VDD
FLAG 1008 48 VDD
FLAG 544 48 VDD
FLAG 1664 -256 VDD
FLAG 1456 48 VDD
FLAG 1520 48 VSS
FLAG 1728 -256 VSS
FLAG 1264 -256 VSS
FLAG 800 -256 VSS
FLAG 608 48 VSS
FLAG 384 -256 VSS
SYMBOL voltage -1168 -288 R0
SYMATTR InstName Vdd
SYMATTR Value 1.5V
SYMBOL voltage -1056 -288 R0
SYMATTR InstName Vss
SYMATTR Value 0V
SYMBOL bias -576 -432 R0
SYMATTR InstName X1
SYMBOL e -2160 -368 R0
WINDOW 3 36 66 Left 0
SYMATTR Value 0.5
SYMATTR InstName E1
SYMBOL e -2160 -224 R0
WINDOW 3 44 66 Left 0
SYMATTR Value 0.5
SYMATTR InstName E2
SYMBOL voltage -928 -288 R0
SYMATTR InstName Vcm
SYMATTR Value 900mV
SYMBOL voltage -2336 -320 R0
WINDOW 123 37 59 Left 0
WINDOW 39 0 0 Left 0
WINDOW 3 -207 51 Left 0
SYMATTR Value2 AC 1
SYMATTR Value SINE(0 500m 1meg)
SYMATTR InstName V1
SYMBOL e 2736 -288 R0
WINDOW 3 36 66 Left 0
SYMATTR Value 1
SYMATTR InstName E3
SYMBOL Gm -2448 400 M90
SYMATTR InstName X2
SYMBOL Gm -2448 976 M90
SYMATTR InstName X3
SYMBOL voltage -1792 -288 R0
SYMATTR InstName Vb3
SYMATTR Value {b3*1.5}
SYMBOL voltage -1680 -288 R0
SYMATTR InstName Vb2
SYMATTR Value {b2*1.5}
SYMBOL voltage -1552 -288 R0
SYMATTR InstName Vb1
SYMATTR Value {b1*1.5}