Version 4
SHEET 1 880 788
WIRE -192 112 -224 112
WIRE -96 112 -128 112
WIRE 128 128 32 128
WIRE 432 128 224 128
WIRE -96 160 -96 112
WIRE 32 160 32 128
WIRE 128 160 128 128
WIRE 224 160 224 128
WIRE 432 224 432 128
WIRE 432 224 384 224
WIRE 480 224 432 224
WIRE 432 304 384 304
WIRE 480 304 432 304
WIRE 432 384 432 304
WIRE 432 384 384 384
WIRE 480 400 432 400
WIRE 512 400 480 400
WIRE 512 416 512 400
WIRE 432 448 432 400
WIRE 432 448 384 448
WIRE 432 512 384 512
WIRE 512 512 512 496
WIRE 512 512 480 512
WIRE 512 528 512 512
WIRE -112 592 -112 560
WIRE -32 592 -32 560
WIRE 160 592 160 560
WIRE 160 592 -32 592
WIRE 32 624 32 560
WIRE 224 624 224 560
WIRE 224 624 32 624
WIRE 432 624 432 512
WIRE 512 624 512 608
WIRE 512 624 432 624
FLAG -224 112 0
FLAG -112 592 0
FLAG 480 512 0
FLAG 480 304 -5_ref
IOPIN 480 304 Out
FLAG 480 224 +5Vref
IOPIN 480 224 Out
FLAG 480 400 +VS
FLAG 432 512 -VS
SYMBOL cap -192 128 R270
WINDOW 0 17 9 VTop 0
WINDOW 3 43 73 VBottom 0
SYMATTR InstName C1
SYMATTR Value 1µ
SYMBOL voltage 512 400 R0
WINDOW 0 -51 19 Left 0
WINDOW 3 -13 60 Left 0
SYMATTR InstName V+
SYMATTR Value 15
SYMBOL voltage 512 512 R0
WINDOW 0 -51 89 Left 0
WINDOW 3 -11 59 Left 0
SYMATTR InstName V-
SYMATTR Value 15
SYMBOL AD588 -192 208 R0
SYMATTR InstName U1
TEXT -256 616 Left 0 !.op
TEXT -8 112 Left 0 ;+/- 5V Reference
