Version 4
SHEET 1 880 680
WIRE -48 112 -176 112
WIRE 96 112 32 112
WIRE 160 112 96 112
WIRE 320 112 240 112
WIRE 400 112 384 112
WIRE -384 144 -384 128
WIRE -256 144 -256 128
WIRE 96 176 96 112
WIRE 160 208 128 208
WIRE -384 240 -384 224
WIRE -256 240 -256 224
WIRE -336 288 -368 288
WIRE -176 288 -176 112
WIRE -176 288 -336 288
WIRE -160 288 -176 288
WIRE -32 288 -96 288
WIRE 96 288 96 240
WIRE 96 288 48 288
WIRE 256 288 96 288
WIRE 400 288 400 112
WIRE 400 288 336 288
WIRE 416 288 400 288
WIRE -336 320 -336 288
WIRE 224 352 224 336
WIRE 160 368 160 208
WIRE 192 368 160 368
WIRE 400 384 400 288
WIRE 400 384 256 384
WIRE 192 400 160 400
WIRE 160 416 160 400
WIRE 224 432 224 416
WIRE -336 448 -336 400
FLAG 160 416 0
FLAG -336 448 0
FLAG 224 336 V+
FLAG 224 432 V-
FLAG -368 288 input
IOPIN -368 288 In
FLAG 416 288 output
IOPIN 416 288 Out
FLAG -256 240 0
FLAG -384 240 0
FLAG -384 128 V+
FLAG -256 128 V-
SYMBOL cap -160 304 R270
WINDOW 0 16 7 VTop 0
WINDOW 3 44 65 VBottom 0
SYMATTR InstName C1
SYMATTR Value 22n
SYMBOL res -48 304 R270
WINDOW 0 16 6 VTop 0
WINDOW 3 44 105 VBottom 0
SYMATTR InstName R1
SYMATTR Value 2K2
SYMBOL res -64 128 R270
WINDOW 0 15 -20 VTop 0
WINDOW 3 44 127 VBottom 0
SYMATTR InstName R2
SYMATTR Value 10k
SYMBOL res 144 128 R270
WINDOW 0 16 -5 VTop 0
WINDOW 3 44 118 VBottom 0
SYMATTR InstName R3
SYMATTR Value 2.2k
SYMBOL cap 320 128 R270
WINDOW 0 16 1 VTop 0
WINDOW 3 44 70 VBottom 0
SYMATTR InstName C2
SYMATTR Value 22n
SYMBOL res 240 304 R270
WINDOW 0 16 4 VTop 0
WINDOW 3 44 128 VBottom 0
SYMATTR InstName R4
SYMATTR Value 10k
SYMBOL voltage -336 304 R0
WINDOW 123 24 132 Left 0
WINDOW 39 0 0 Left 0
SYMATTR Value2 AC 1
SYMATTR InstName V1
SYMATTR Value PULSE(0 1 0 0.01m 0.01m .49m 1m)
SYMBOL voltage -384 128 R0
SYMATTR InstName V2
SYMATTR Value 15
SYMBOL voltage -256 128 R0
SYMATTR InstName V3
SYMATTR Value -15
SYMBOL Opamps\\LT1124 224 320 R0
WINDOW 0 -32 63 Left 0
WINDOW 3 34 49 Left 0
SYMATTR InstName Amp
SYMBOL Robertugo\\Pote 112 144 M0
WINDOW 0 59 37 Left 0
WINDOW 3 50 58 Left 0
WINDOW 123 84 83 Center 0
SYMATTR InstName Treble
SYMATTR Value Rt=20K
SYMATTR Value2 Set={w1}
TEXT -152 -24 Left 0 ;http://members.tripod.com/roymal/ReverbTone.htm
TEXT -144 24 Left 0 !.param w1=0.5
TEXT -144 48 Left 0 !.step param w1 0 1 0.5
TEXT -144 72 Left 0 !.ac dec 100 20 20k
TEXT -448 24 Left 0 ;.tran 0 10m 0 1u
TEXT -448 56 Left 0 !.options plotwinsize=0
TEXT -440 -16 Left 0 ;Transient Analysis
TEXT 120 48 Left 0 ;step potentiometer
RECTANGLE Normal -160 88 -464 -40
