Version 4
SHEET 1 1048 740
WIRE 144 144 144 96
WIRE 144 16 144 0
WIRE 336 0 336 -32
WIRE 336 0 336 64
WIRE 144 144 144 160
WIRE 144 240 144 256
WIRE -128 352 -64 352
WIRE 0 352 208 352
WIRE 896 224 896 256
WIRE 896 352 896 400
WIRE 416 0 336 0
WIRE 480 0 528 0
WIRE 528 0 528 128
WIRE -288 464 -288 496
WIRE -288 384 -288 352
WIRE -288 352 -208 352
WIRE 720 0 720 96
WIRE 720 -80 720 -176
WIRE 720 -176 336 -176
WIRE 336 -176 336 -128
WIRE 336 304 336 240
WIRE 208 352 208 144
WIRE 144 144 208 144
WIRE 336 240 336 144
WIRE 416 -128 336 -128
WIRE 336 -128 336 -112
WIRE 480 -128 528 -128
WIRE 528 -128 528 -80
WIRE 336 672 336 720
WIRE 336 544 336 560
WIRE 336 560 400 560
WIRE 336 560 336 592
WIRE 464 560 496 560
WIRE 496 560 496 608
WIRE 208 352 272 352
WIRE 336 400 336 464
WIRE 144 0 256 0
WIRE 256 0 256 240
WIRE 256 240 336 240
WIRE 416 240 432 240
WIRE 432 240 432 256
WIRE 432 256 464 256
WIRE 432 256 432 288
WIRE 544 256 560 256
WIRE 672 256 688 256
WIRE 800 256 816 256
WIRE 896 256 896 272
WIRE 816 288 816 256
WIRE 816 256 896 256
WIRE 688 288 688 256
WIRE 688 256 720 256
WIRE 560 288 560 256
WIRE 560 256 592 256
WIRE 432 352 432 400
WIRE 560 352 560 400
WIRE 688 352 688 400
WIRE 816 352 816 400
WIRE 352 240 336 240
WIRE 272 352 272 384
WIRE 272 384 288 384
FLAG 336 720 0
FLAG 896 400 0
FLAG -288 496 0
FLAG 528 128 0
FLAG 144 256 0
FLAG 720 96 0
FLAG -288 352 IN
IOPIN -288 352 In
FLAG 896 224 OUT
IOPIN 896 224 Out
FLAG 528 -80 0
FLAG 496 608 0
FLAG 432 400 0
FLAG 560 400 0
FLAG 688 400 0
FLAG 816 400 0
SYMBOL cap -64 368 R270
WINDOW 0 32 32 VTop 0
WINDOW 3 0 32 VBottom 0
SYMATTR InstName C1
SYMATTR Value 100pF
SYMATTR SpiceLine Rser=500m Lser=1nH
SYMBOL cap 352 256 R270
WINDOW 0 32 32 VTop 0
WINDOW 3 0 32 VBottom 0
SYMATTR InstName C3
SYMATTR Value 18pF
SYMATTR SpiceLine Rser=500m Lser=1nH
SYMBOL ind 320 48 R0
SYMATTR InstName L2
SYMATTR Value 100nH
SYMATTR SpiceLine Rser=1m
SYMBOL res 128 144 R0
SYMATTR InstName R1
SYMATTR Value 330
SYMBOL res 128 0 R0
SYMATTR InstName R2
SYMATTR Value 1500
SYMBOL res 320 -128 R0
SYMATTR InstName R3
SYMATTR Value 50
SYMBOL res 880 256 R0
SYMATTR InstName R4
SYMATTR Value 50
SYMBOL res -224 368 R270
WINDOW 0 32 56 VTop 0
WINDOW 3 0 56 VBottom 0
SYMATTR InstName R6
SYMATTR Value 50
SYMBOL cap 416 16 R270
WINDOW 0 32 32 VTop 0
WINDOW 3 0 32 VBottom 0
SYMATTR InstName C4
SYMATTR Value 1nF
SYMATTR SpiceLine Rser=500m Lser=1nH
SYMBOL voltage 720 -96 R0
WINDOW 123 0 0 Left 0
WINDOW 39 0 0 Left 0
SYMATTR InstName V1
SYMATTR Value 13.2V
SYMBOL voltage -288 368 M0
WINDOW 3 60 90 Left 0
WINDOW 123 257 46 Left 0
WINDOW 39 24 44 Left 0
SYMATTR Value SINE(0 500mV 145MegHz)
SYMATTR Value2 AC 1V
SYMATTR InstName V2
SYMBOL cap 416 -112 R270
WINDOW 0 32 32 VTop 0
WINDOW 3 0 32 VBottom 0
SYMATTR InstName C5
SYMATTR Value 1nF
SYMATTR SpiceLine Rser=500m Lser=1nH
SYMBOL res 320 576 R0
SYMATTR InstName R5
SYMATTR Value 5
SYMBOL res 320 448 R0
SYMATTR InstName R7
SYMATTR Value 9
SYMBOL cap 400 576 R270
WINDOW 0 32 32 VTop 0
WINDOW 3 0 32 VBottom 0
SYMATTR InstName C2
SYMATTR Value 1nF
SYMATTR SpiceLine Rser=500m Lser=1nH
SYMBOL cap 416 288 R0
SYMATTR InstName C6
SYMATTR Value 27pF
SYMATTR SpiceLine Rser=500m Lser=1nH
SYMBOL cap 544 288 R0
SYMATTR InstName C7
SYMATTR Value 47pF
SYMATTR SpiceLine Rser=500m Lser=1nH
SYMBOL cap 672 288 R0
SYMATTR InstName C8
SYMATTR Value 47pF
SYMATTR SpiceLine Rser=500m Lser=1nH
SYMBOL cap 800 288 R0
SYMATTR InstName C9
SYMATTR Value 27pF
SYMATTR SpiceLine Rser=500m Lser=1nH
SYMBOL ind 448 272 R270
WINDOW 0 32 56 VTop 0
WINDOW 3 5 56 VBottom 0
SYMATTR InstName L1
SYMATTR Value 80nH
SYMATTR SpiceLine Rser=1m
SYMBOL ind 576 272 R270
WINDOW 0 32 56 VTop 0
WINDOW 3 5 56 VBottom 0
SYMATTR InstName L3
SYMATTR Value 90nH
SYMATTR SpiceLine Rser=1m
SYMBOL ind 704 272 R270
WINDOW 0 32 56 VTop 0
WINDOW 3 5 56 VBottom 0
SYMATTR InstName L4
SYMATTR Value 80nH
SYMATTR SpiceLine Rser=1m
SYMBOL mesfet 288 304 R0
WINDOW 0 -142 90 Left 0
WINDOW 3 -142 120 Left 0
SYMATTR InstName DUT1
SYMATTR Value G7V7570M.LIB
SYMATTR Prefix X
TEXT -412 8 Left 0 !;op
TEXT -416 -88 Left 0 !;noise V(OUT) V2 dec 100000 144.995MegHz 145.005MegHz
TEXT -416 48 Left 0 !;ac dec 500 50MegHz 500MegHz
TEXT -416 -128 Left 0 !.tran 0 700ns 300ns 100ps uic
TEXT -416 -32 Left 0 !.inc G7V7570M.LIB
TEXT 216 384 Left 0 ;B/G
TEXT 352 304 Left 0 ;C/D
TEXT 352 400 Left 0 ;E/S
