* DATE: Dec 24/02
* LOT: T2AL WAF: 9097
* Temperature_parameters=Default
.MODEL CMOSN NMOS ( LEVEL = 49
+VERSION = 3.1 TNOM = 27 TOX = 5.7E-9
+XJ = 1E-7 NCH = 2.3549E17 VTH0 = 0.3629974
+K1 = 0.4575801 K2 = 3.777103E-3 K3 = 1E-3
+K3B = 2.1285077 W0 = 1E-7 NLX = 2.566772E-7
+DVT0W = 0 DVT1W = 0 DVT2W = 0
+DVT0 = 0.4410745 DVT1 = 0.5607111 DVT2 = -0.5
+U0 = 283.7466924 UA = -1.512942E-9 UB = 2.828199E-18
+UC = 4.052586E-11 VSAT = 1.712274E5 A0 = 1.802127
+AGS = 0.3383318 B0 = -4.355263E-8 B1 = 2.940336E-7
+KETA = -8.525889E-3 A1 = 3.839165E-4 A2 = 0.3783843
+RDSW = 116 PRWG = 0.5 PRWB = -0.2
+WR = 1 WINT = 0 LINT = 7.857463E-9
+XL = 3E-8 XW = -4E-8 DWG = -1.151403E-8
+DWB = 2.244996E-9 VOFF = -0.0961811 NFACTOR = 1.6310941
+CIT = 0 CDSC = 2.4E-4 CDSCD = 0
+CDSCB = 0 ETA0 = 4.759601E-3 ETAB = 5.691679E-4
+DSUB = 0.0250141 PCLM = 1.7583943 PDIBLC1 = 1
+PDIBLC2 = 2.632885E-3 PDIBLCB = -0.0949444 DROUT = 0.864547
+PSCBE1 = 4.980812E8 PSCBE2 = 5.390143E-9 PVAG = 0
+DELTA = 0.01 RSH = 4.5 MOBMOD = 1
+PRT = 0 UTE = -1.5 KT1 = -0.11
+KT1L = 0 KT2 = 0.022 UA1 = 4.31E-9
+UB1 = -7.61E-18 UC1 = -5.6E-11 AT = 3.3E4
+WL = 0 WLN = 1 WW = 0
+WWN = 1 WWL = 0 LL = 0
+LLN = 1 LW = 0 LWN = 1
+LWL = 0 CAPMOD = 2 XPART = 0.5
+CGDO = 5.8E-10 CGSO = 5.8E-10 CGBO = 1E-12
+CJ = 1.734041E-3 PB = 0.9831575 MJ = 0.4564239
+CJSW = 3.534854E-10 PBSW = 0.99 MJSW = 0.3271049
+CJSWG = 3.29E-10 PBSWG = 0.99 MJSWG = 0.3271049
+CF = 0 PVTH0 = -0.01 PRDSW = -10
+PK2 = 3.209664E-3 WKETA = 3.06252E-3 LKETA = -0.0100074 )
*
.MODEL CMOSP PMOS ( LEVEL = 49
+VERSION = 3.1 TNOM = 27 TOX = 5.7E-9
+XJ = 1E-7 NCH = 4.1589E17 VTH0 = -0.5233425
+K1 = 0.6240067 K2 = -1.037285E-3 K3 = 0
+K3B = 11.4436775 W0 = 1E-6 NLX = 1E-9
+DVT0W = 0 DVT1W = 0 DVT2W = 0
+DVT0 = 4.8942592 DVT1 = 0.7439955 DVT2 = -0.0614024
+U0 = 102.8404294 UA = 1.087438E-9 UB = 1.018332E-21
+UC = -1E-10 VSAT = 2E5 A0 = 0.7311623
+AGS = 0.0675557 B0 = 1.379978E-6 B1 = 5E-6
+KETA = 0.0193459 A1 = 0 A2 = 0.3223937
+RDSW = 508.0817707 PRWG = 0.5 PRWB = -0.4844364
+WR = 1 WINT = 0 LINT = 4.214491E-8
+XL = 3E-8 XW = -4E-8 DWG = -3.748016E-8
+DWB = 1.404916E-10 VOFF = -0.1085589 NFACTOR = 1.0020756
+CIT = 0 CDSC = 2.4E-4 CDSCD = 0
+CDSCB = 0 ETA0 = 0.7619276 ETAB = -0.2758493
+DSUB = 1.1828582 PCLM = 1.1866443 PDIBLC1 = 6.229231E-3
+PDIBLC2 = -1.008694E-7 PDIBLCB = -1E-3 DROUT = 0.0746789
+PSCBE1 = 7.21986E9 PSCBE2 = 5.865247E-10 PVAG = 6.366394E-5
+DELTA = 0.01 RSH = 3.4 MOBMOD = 1
+PRT = 0 UTE = -1.5 KT1 = -0.11
+KT1L = 0 KT2 = 0.022 UA1 = 4.31E-9
+UB1 = -7.61E-18 UC1 = -5.6E-11 AT = 3.3E4
+WL = 0 WLN = 1 WW = 0
+WWN = 1 WWL = 0 LL = 0
+LLN = 1 LW = 0 LWN = 1
+LWL = 0 CAPMOD = 2 XPART = 0.5
+CGDO = 6.86E-10 CGSO = 6.86E-10 CGBO = 1E-12
+CJ = 1.896553E-3 PB = 0.9840804 MJ = 0.4655537
+CJSW = 3.096962E-10 PBSW = 0.6696603 MJSW = 0.2940103
+CJSWG = 2.5E-10 PBSWG = 0.6696603 MJSWG = 0.2940103
+CF = 0 PVTH0 = 2.648089E-3 PRDSW = 9.4865447
+PK2 = 3.167995E-3 WKETA = 0.0254541 LKETA = -6.865315E-3 )
*