Version 4
SHEET 1 1036 680
WIRE 16 48 -32 48
WIRE 128 48 96 48
WIRE 240 48 208 48
WIRE 496 48 240 48
WIRE 800 48 496 48
WIRE -32 64 -32 48
WIRE 560 112 528 112
WIRE 800 112 800 48
WIRE 800 112 640 112
WIRE 256 128 208 128
WIRE 496 128 496 48
WIRE 496 128 480 128
WIRE -32 176 -32 144
WIRE -32 176 -112 176
WIRE 256 192 224 192
WIRE 528 192 528 112
WIRE 528 192 480 192
WIRE 560 192 528 192
WIRE 672 192 640 192
WIRE -32 208 -32 176
WIRE 48 256 32 256
WIRE 96 256 48 256
WIRE 256 256 176 256
WIRE 512 256 480 256
WIRE 672 256 672 192
WIRE 672 256 512 256
WIRE 800 272 800 112
WIRE 48 288 48 256
WIRE 144 288 48 288
WIRE -112 304 -112 176
WIRE 48 320 48 288
WIRE 240 320 240 48
WIRE 256 320 240 320
WIRE 560 320 480 320
WIRE 144 336 144 288
WIRE 560 336 560 320
WIRE 672 336 672 256
WIRE 224 352 224 192
WIRE 512 352 512 256
WIRE 512 352 224 352
WIRE 208 384 208 128
WIRE 272 384 208 384
WIRE 272 400 272 384
WIRE -112 432 -112 368
WIRE -32 432 -32 304
WIRE -32 432 -112 432
WIRE 48 432 48 400
WIRE 48 432 -32 432
WIRE 144 432 144 400
WIRE 144 432 48 432
WIRE 208 432 208 384
WIRE 208 432 144 432
WIRE 560 432 560 400
WIRE 560 432 208 432
WIRE 672 432 672 400
WIRE 672 432 560 432
WIRE 800 432 800 352
WIRE 800 432 672 432
FLAG 272 400 0
SYMBOL Robertugo\\555_ALL 416 240 R0
SYMATTR InstName U1
SYMBOL res 192 240 R90
WINDOW 0 0 86 VBottom 0
WINDOW 3 -24 28 VTop 0
SYMATTR InstName Rbuf
SYMATTR Value 100
SYMBOL res 112 32 R90
WINDOW 0 59 92 VBottom 0
WINDOW 3 32 56 VTop 0
SYMATTR InstName Rs
SYMATTR Value 1
SYMBOL ind -16 48 M0
SYMATTR InstName Lfb
SYMATTR Value 10m
SYMATTR SpiceLine Ipk=0.5 Rser=0.375 Rpar=5k Cpar=0
SYMBOL cap 544 336 R0
SYMATTR InstName Cbp
SYMATTR Value 1n
SYMBOL res 656 176 R90
WINDOW 0 57 90 VBottom 0
WINDOW 3 32 31 VTop 0
SYMATTR InstName R2
SYMATTR Value 8k2
SYMBOL cap 656 336 R0
SYMATTR InstName Ct
SYMATTR Value 10n
SYMBOL voltage 800 256 R0
WINDOW 0 -49 106 Left 0
WINDOW 3 -21 60 Left 0
WINDOW 123 0 0 Left 0
WINDOW 39 0 0 Left 0
SYMATTR InstName Vcc
SYMATTR Value 12v
SYMBOL res 656 96 R90
WINDOW 0 0 56 VBottom 0
WINDOW 3 32 56 VTop 0
SYMATTR InstName R1
SYMATTR Value 10k
SYMBOL npn3 32 208 M0
WINDOW 3 -76 -9 Left 0
WINDOW 0 -77 -35 Left 0
SYMATTR Value BU508A
SYMATTR InstName Qout
SYMBOL res 32 304 R0
SYMATTR InstName R5
SYMATTR Value 47
SYMBOL diode 160 400 R180
WINDOW 0 24 72 Left 0
WINDOW 3 24 0 Left 0
SYMATTR InstName D1
SYMATTR Value 1N914
SYMBOL diode -96 368 R180
WINDOW 0 -75 96 Left 0
WINDOW 3 -27 79 VLeft 0
SYMATTR InstName Damper
SYMATTR Value MURS120
SYMBOL voltage 112 48 R270
WINDOW 0 -56 26 VRight 0
WINDOW 3 -21 60 Left 0
WINDOW 123 0 0 Left 0
WINDOW 39 0 0 Left 0
SYMATTR InstName Vcc1
SYMATTR Value 12v
TEXT 334 76 Left 0 !.tran 0 2m 1m
