Version 4
SHEET 1 1636 680
WIRE 176 16 -16 16
WIRE 368 16 176 16
WIRE 448 16 368 16
WIRE 368 32 368 16
WIRE 176 64 176 16
WIRE 656 96 576 96
WIRE 816 96 736 96
WIRE -16 112 -16 16
WIRE 368 128 368 112
WIRE 448 128 368 128
WIRE 576 128 576 96
WIRE 816 128 816 96
WIRE 368 144 368 128
WIRE 176 208 176 144
WIRE 256 208 176 208
WIRE 176 224 176 208
WIRE 576 240 576 208
WIRE 816 240 816 192
WIRE -16 304 -16 192
WIRE 176 304 176 288
WIRE 176 304 -16 304
WIRE 368 304 368 208
WIRE 368 304 176 304
WIRE -16 320 -16 304
FLAG -16 320 0
FLAG 576 240 0
FLAG 816 240 0
FLAG 448 16 A
FLAG 448 128 B
FLAG 816 96 LoadPower
SYMBOL misc\\DIAC 320 176 R90
WINDOW 0 0 32 VBottom 0
WINDOW 3 64 32 VTop 0
WINDOW 123 92 32 VTop 0
SYMATTR InstName Q1
SYMATTR Value2 VK=30
SYMBOL voltage -16 96 R0
WINDOW 0 10 -1 Left 0
WINDOW 3 9 103 Left 0
WINDOW 123 0 0 Left 0
WINDOW 39 0 0 Left 0
SYMATTR InstName V1
SYMATTR Value SINE(0 166 60)
SYMBOL res 160 160 M180
WINDOW 0 36 76 Left 0
WINDOW 3 36 40 Left 0
SYMATTR InstName R1
SYMATTR Value {Rdim}
SYMBOL cap 160 224 R0
SYMATTR InstName C1
SYMATTR Value .062µ
SYMBOL res 352 16 R0
WINDOW 0 36 23 Left 0
WINDOW 3 45 83 Left 0
SYMATTR InstName Rload
SYMATTR Value 135
SYMBOL bv 576 112 R0
WINDOW 0 11 8 Left 0
WINDOW 3 10 101 Left 0
SYMATTR InstName B1
SYMATTR Value V=V(A,B)*I(Rload)
SYMBOL res 752 80 R90
WINDOW 0 0 56 VBottom 0
WINDOW 3 32 56 VTop 0
SYMATTR InstName R2
SYMATTR Value 50K
SYMBOL cap 800 128 R0
SYMATTR InstName C3
SYMATTR Value 1µ
SYMBOL triac_st 336 144 R0
SYMATTR InstName U1
TEXT -144 -72 Left 0 !.tran .3
TEXT -456 -16 Left 0 !.subckt DIAC T1 T2\n* default parameters\n.param RS=10 ; series resistance\n.param VK=20 ; breakdown voltage\nQ1 N002 N001 T2 0 PN\nQ2 N001 N002 N005 0 NP\nR1 N002 N004 {20K*(VK-1)}\nR2 N004 T2 9.5K\nR3 N002 N005 9.5K\nQ3 N004 N003 N005 0 PN\nQ4 N003 N004 T2 0 NP\nR4 T1 N005 {RS}\n.model PN NPN Cjc=10p Cje=10p\n.model NP PNP Cjc=10p Cje=10p\n.ends DIAC
TEXT -144 -40 Left 0 !.step param Rdim list 1K 50K 100K 200K 300K 325K
TEXT -512 432 Left 0 ;This example schematic is supplied for informational/educational purposes only.
TEXT 392 72 Left 0 ;Light Bulb
TEXT -448 -64 Left 0 !.include triac_st.lib
TEXT 320 336 Left 0 ;symbol "triac_st"
