.SUBCKT LT1001A 3 2 7 4 6
* INPUT
RC1 7 80 6631
RC2 7 90 6631
Q1 80 102 10 QM1
Q2 90 103 11 QM2
RB1 2 102 500
RB2 3 103 500
DDM1 102 104 DM2
DDM3 104 103 DM2
DDM2 103 105 DM2
DDM4 105 102 DM2
C1 80 90 8.66e-12
RE1 10 12 1409
RE2 11 12 1409
IEE 12 4 9.901e-6
RE 12 0 20200000
CE 12 0 1.579E-12
* INTERMEDIATE
GCM 0 8 12 0 7.558E-11
GA 8 0 80 90 1.508E-04
R2 8 0 100000
C2 1 8 3e-11
GB 1 0 8 0 1538
* OUTPUT
RO1 1 6 25.75
RO2 1 0 34.25
RC 17 0 4.228e-6
GC 0 17 6 0 236500
D1 1 17 DM1
D2 17 1 DM1
D3 6 13 DM2
D4 14 6 DM2
VC 7 13 1.803
VE 14 4 1.803
IP 7 4 0.00159
DSUB 4 7 DM2
* MODELS
.MODEL QM1 NPN(IS=8e-16 BF=7692)
.MODEL QM2 NPN(IS=8.003E-16 BF=14290)
.MODEL DM1 D(IS=2.331e-8)
.MODEL DM2 D(IS=8e-16)
.ENDS LT1001A
*
***
*
.SUBCKT LT1006 1 2 3 4 5
C1 11 12 8.661E-12
C2 6 7 3e-11
DC 8 53 DX
DE 54 8 DX
DLP 90 91 DX
DLN 92 90 DX
DP 4 3 DX
EGND 99 0 POLY(2) (3,0) (4,0) 0 .5 .5
FB 7 99 POLY(5) VB VC VE VLP VLN 0 2.475E9 -2E9 2E9 2E9 -2E9
GA 6 0 11 12 113.1E-6
GCM 0 6 10 99 225.7E-12
IEE 3 10 DC 12.03E-6
HLIM 90 0 VLIM 1K
Q1 11 102 13 QM1
Q2 12 101 14 QM2
RB1 2 102 400
RB2 1 101 400
DCM1 105 102 DX
DCM2 105 101 DX
VCMC 105 4 DC 0.4
R2 6 9 100000
RC1 4 11 8841
RC2 4 12 8841
RE1 13 10 4519
RE2 14 10 4519
REE 10 99 16.63E6
RO1 8 5 80
RO2 7 99 25
IP 3 4 328E-6
VB 9 0 DC 0
VC 3 53 DC 1.610
VE 54 4 DC .61
VLIM 7 8 DC 0
VLP 91 0 DC 25
VLN 0 92 DC 25
.MODEL DX D(IS=8e-16)
.MODEL QM1 PNP(IS=8e-16 BF=595.5)
.MODEL QM2 PNP(IS=8.009E-16 BF=604.5)
.ENDS LT1006
*
***
*
.SUBCKT LT1006A 1 2 3 4 5
* INPUT
C1 11 12 8.661E-12
C2 6 7 3e-11
DC 8 53 DX
DE 54 8 DX
DLP 90 91 DX
DLN 92 90 DX
DP 4 3 DX
EGND 99 0 POLY(2) (3,0) (4,0) 0 .5 .5
FB 7 99 POLY(5) VB VC VE VLP VLN 0 2.475E9 -2E9 2E9 2E9 -2E9
GA 6 0 11 12 113.1E-6
GCM 0 6 10 99 225.7E-12
IEE 3 10 DC 12.03E-6
HLIM 90 0 VLIM 1K
Q1 11 102 13 QM1
Q2 12 101 14 QM2
RB1 2 102 400
RB2 1 101 400
DCM1 105 102 DX
DCM2 105 101 DX
VCMC 105 4 DC 0.4
R2 6 9 100000
RC1 4 11 8841
RC2 4 12 8841
RE1 13 10 4519
RE2 14 10 4519
REE 10 99 16.63E6
RO1 8 5 80
RO2 7 99 25
IP 3 4 328E-6
VB 9 0 DC 0
VC 3 53 DC 1.610
VE 54 4 DC .61
VLIM 7 8 DC 0
VLP 91 0 DC 25
VLN 0 92 DC 25
.MODEL DX D(IS=8e-16)
.MODEL QM1 PNP(IS=8e-16 BF=662.3)
.MODEL QM2 PNP(IS=8.006E-16 BF=671.1)
.ENDS LT1006A
*
***
*
.SUBCKT LT1006S8 1 2 3 4 5
*
C1 11 12 8.661E-12
C2 6 7 3e-11
DC 8 53 DX
DE 54 8 DX
DLP 90 91 DX
DLN 92 90 DX
DP 4 3 DX
EGND 99 0 POLY(2) (3,0) (4,0) 0 .5 .5
FB 7 99 POLY(5) VB VC VE VLP VLN 0 2.475E9 -2E9 2E9 2E9 -2E9
GA 6 0 11 12 113.1E-6
GCM 0 6 10 99 225.7E-12
IEE 3 10 DC 12.03E-6
HLIM 90 0 VLIM 1K
Q1 11 102 13 QM1
Q2 12 101 14 QM2
RB1 2 102 400
RB2 1 101 400
DCM1 105 102 DX
DCM2 105 101 DX
VCMC 105 4 DC 0.4
R2 6 9 100000
RC1 4 11 8841
RC2 4 12 8841
RE1 13 10 4519
RE2 14 10 4519
REE 10 99 16.63E6
RO1 8 5 80
RO2 7 99 25
IP 3 4 328E-6
VB 9 0 DC 0
VC 3 53 DC 1.610
VE 54 4 DC .61
VLIM 7 8 DC 0
VLP 91 0 DC 25
VLN 0 92 DC 25
.MODEL DX D(IS=8e-16)
.MODEL QM1 PNP(IS=8e-16 BF=595.5)
.MODEL QM2 PNP(IS=8.025E-16 BF=604.5)
.ENDS LT1006S8
*
***
*
.SUBCKT LT1007 3 2 7 4 6
RC1 7 80 663.15
RC2 7 90 663.15
Q1 80 2 10 QM1
Q2 90 3 11 QM2
*
C1 80 91 200E-12
RXC1 91 90 50
CXC1 91 90 500E-12
C2 8 98 4e-12
RXC2 8 98 4.00K
CXC2 1 98 2.7e-11
*
CIN 3 2 5E-12
DDM1 2 104 DM2
DDM3 104 3 DM2
DDM2 3 105 DM2
DDM4 105 2 DM2
RE1 10 12 -26.233
RE2 11 12 -26.233
IEE 12 4 7.503e-5
RE 12 0 2666000
CE 12 0 1.579E-12
GCM 0 8 12 0 7.558E-10
GA 8 0 80 90 0.001508
R2 8 0 100000
GB 1 0 8 0 1917.6
RO2 1 0 69
*
RS 1 6 1
ECL 18 0 1 6 28.28
GCL 0 8 20 0 1
RCL 20 0 1E3
D1 18 20 DM1
D2 20 18 DM1
*
D3A 131 70 DM3
D3B 13 131 DM3
GPL 0 8 70 7 1
VC 13 6 3.0909
RPLA 7 70 1E4
RPLB 7 131 1E5
D4A 60 141 DM3
D4B 141 14 DM3
GNL 0 8 60 4 1
VE 6 14 3.0909
RNLA 60 4 1E4
RNLB 141 4 1E5
*
IP 7 4 0.002625
DSUB 4 7 DM2
* MODELS
.MODEL QM1 NPN(IS=8e-16 BF=1785.7)
.MODEL QM2 NPN(IS=8.0062E-16 BF=4166.7)
.MODEL DM1 D(IS=1e-19)
.MODEL DM2 D(IS=8e-16)
.MODEL DM3 D(IS=1e-20)
.ENDS LT1007
*
***
*
.SUBCKT LT1007A 3 2 7 4 6
RC1 7 80 663.15
RC2 7 90 663.15
Q1 80 2 10 QM1
Q2 90 3 11 QM2
*
C1 80 91 200E-12
RXC1 91 90 50
CXC1 91 90 500E-12
C2 8 98 4e-12
RXC2 8 98 4.00K
CXC2 1 98 2.7e-11
*
CIN 3 2 5E-12
DDM1 2 104 DM2
DDM3 104 3 DM2
DDM2 3 105 DM2
DDM4 105 2 DM2
RE1 10 12 -26.233
RE2 11 12 -26.233
IEE 12 4 7.503e-5
RE 12 0 2666000
CE 12 0 1.579E-12
GCM 0 8 12 0 7.558E-10
GA 8 0 80 90 0.001508
R2 8 0 100000
GB 1 0 8 0 1917.6
RO2 1 0 69
*
RS 1 6 1
ECL 18 0 1 6 28.28
GCL 0 8 20 0 1
RCL 20 0 1E3
D1 18 20 DM1
D2 20 18 DM1
*
D3A 131 70 DM3
D3B 13 131 DM3
GPL 0 8 70 7 1
VC 13 6 3.0909
RPLA 7 70 1E4
RPLB 7 131 1E5
D4A 60 141 DM3
D4B 141 14 DM3
GNL 0 8 60 4 1
VE 6 14 3.0909
RNLA 60 4 1E4
RNLB 141 4 1E5
*
IP 7 4 0.002625
DSUB 4 7 DM2
* MODELS
.MODEL QM1 NPN(IS=8e-16 BF=2778)
.MODEL QM2 NPN(IS=8.003E-16 BF=5769)
.MODEL DM1 D(IS=1e-19)
.MODEL DM2 D(IS=8e-16)
.MODEL DM3 D(IS=1e-20)
.ENDS LT1007A
*
***
*
* NODES 1 AND 8 = COMPENSATION PINS
.SUBCKT LT1008 3 2 7 4 6 1 8
* USE C=30 PF IN MAIN CIRCUIT (CA TO CB).
* INPUT
RC1 7 80 8842
RC2 7 90 8842
Q1 80 2 10 QM1
Q2 90 3 11 QM2
DDM1 2 3 DM2
DDM2 3 2 DM2
C1 80 90 8.66e-12
RE1 10 12 224.6
RE2 11 12 224.6
IEE 12 4 6e-6
RE 12 0 33330000
CE 12 0 1.579E-12
* INTERMEDIATE
GCM 0 8 12 0 2.841E-11
GA 8 0 80 90 1.131E-04
R2 8 0 100000
* EXTERNAL COMP CAP USED FOR C2 (SEE NOTE ABOVE).
GB 1 0 8 0 196
* OUTPUT
RO1 1 6 100
RO2 1 0 900
RC 17 0 6.802e-5
GC 0 17 6 0 14700
D1 1 17 DM1
D2 17 1 DM1
D3 6 13 DM2
D4 14 6 DM2
VC 7 13 1.774
VE 14 4 1.774
IP 7 4 0.000374
DSUB 4 7 DM2
* MODELS
.MODEL QM1 NPN(IS=8e-16 BF=66670)
.MODEL QM2 NPN(IS=8.009E-16 BF=200000)
.MODEL DM1 D(IS=4.276E-12)
.MODEL DM2 D(IS=8e-16)
.ENDS LT1008
*
***
*
*CCM Wed May 20 16:28:21 1998
*LT1010CT PINOUT IN V+ V- BIAS OUTPUT
.SUBCKT LT1010    1 3  4    6    5
* input stage
CIN 1 99 1.4139e-12
RIN 1 99 86124000
Q1 11 2 13 Q1
Q2 12 1 14 Q2
RC1 444 11 273.59
RC2 444 12 273.59
VCMIR 444 4 DC -1.0
RE1 10 13 91.059
RE2 10 14 91.059
C1 11 12 1.2437e-12
RFB 2 16 100
EFB 16 99 50 99 1.003
IEE 3 10 DC 0.0074602
*GSR 3 10 11 12 1.2286e-003
GSR 3 10 POLY(2) 11 12 121 0 0 0 0 0 0.0012286
D1 10 3 DX
GA 60 99 11 12 0.0036551
* bias and SR control
RBIAS1 6 3 1.0E12
VBIAS1 6 120 DC 0
IBIAS1 120 3 DC 0.605
RBIAS2 3 120 1.33
FBIAS1 3 4 VBIAS1 1.0
FSR1 0 121 POLY(1) VBIAS1 1.0E-3 -0.0265
RSR1 121 0 1.0E3
FSR2 3 10 VBIAS1 0.0737
* noise voltage
GR 99 60 605 606 8.6534
IR1 0 605 DC 1
IR2 0 606 DC 1
DR1 605 0 DR
DR2 606 0 DR
* output stage
R2 60 99 1000000
C2 60 99 6.2599e-11
DC 53 3 DX
DE 4 54 DX
VC 53 60 DC 0.86
VE 60 54 DC 1.7324
GB 70 99 60 99 0.14286
R01 70 99 7
R02 70 50 0.1
R03 50 5 7.5
R04 5 99 1.0000e+012
ELIM1 91 0 70 50 25.906
ELIM2 92 0 70 50 21.823
DLP 91 90 DX
DLN 90 92 DX
VLIM 90 0 DC 0
FB 70 99 VLIM 20.655
* supply characteristic
EGND 99 0 POLY(2) 3 0 4 0 0 0.5 0.5
IP 3 4 DC -0.0024602
RP 3 4 150000
GV 31 0 70 50 10
DP1 3 31 DX
DP2 32 4 DX
RGV 32 33 10.0
EGV 31 33 POLY(1) 3 4 -0.8 1.0
.MODEL Q1 PNP IS=3.7926e-15 BF=48.7 XTB=-1.3209
+ XTI=5.50008
.MODEL Q2 PNP IS=2.6367e-16 BF=48.7 XTB=-1.3209
+ XTI=0.499918
.MODEL DX D IS=8e-16 RS=0 XTI=0
.MODEL DR D IS=8e-16 KF=8.0939e-17 RS=0 XTI=0
.ENDS LT1010
*
***
*
.SUBCKT LT1012 3 2 7 4 6
* INPUT
RC1 7 80 8842
RC2 7 90 8842
Q1 80 2 10 QM1
Q2 90 3 11 QM2
DDM1 2 3 DM2
DDM2 3 2 DM2
C1 80 90 5.46e-12
RE1 10 12 224.6
RE2 11 12 224.6
IEE 12 4 6e-6
RE 12 0 33330000
CE 12 0 1.579E-12
* INTERMEDIATE
GCM 0 8 12 0 2.841E-11
GA 8 0 80 90 1.131E-04
R2 8 0 100000
C2 1 8 3e-11
GB 1 0 8 0 196
* OUTPUT
RO1 1 6 100
RO2 1 0 900
RC 17 0 1.063E-04
GC 0 17 6 0 9408
D1 1 17 DM1
D2 17 1 DM1
D3 6 13 DM2
D4 14 6 DM2
VC 7 13 1.785
VE 14 4 1.785
IP 7 4 0.000374
DSUB 4 7 DM2
* MODELS
.MODEL QM1 NPN(IS=8e-16 BF=75000)
.MODEL QM2 NPN(IS=8.003E-16 BF=150000)
.MODEL DM1 D(IS=1.179E-19)
.MODEL DM2 D(IS=8e-16)
.ENDS LT1012
*
***
*
.SUBCKT LT1012A 3 2 7 4 6
* INPUT
RC1 7 80 8842
RC2 7 90 8842
Q1 80 2 10 QM1
Q2 90 3 11 QM2
DDM1 2 3 DM2
DDM2 3 2 DM2
C1 80 90 5.46e-12
RE1 10 12 224.6
RE2 11 12 224.6
IEE 12 4 6e-6
RE 12 0 33330000
CE 12 0 1.579E-12
* INTERMEDIATE
GCM 0 8 12 0 2.841E-11
GA 8 0 80 90 1.131E-04
R2 8 0 100000
C2 1 8 3e-11
GB 1 0 8 0 196
* OUTPUT
RO1 1 6 100
RO2 1 0 900
RC 17 0 1.063E-04
GC 0 17 6 0 9408
D1 1 17 DM1
D2 17 1 DM1
D3 6 13 DM2
D4 14 6 DM2
VC 7 13 1.785
VE 14 4 1.785
IP 7 4 0.000374
DSUB 4 7 DM2
* MODELS
.MODEL QM1 NPN(IS=8e-16 BF=92310)
.MODEL QM2 NPN(IS=8.002E-16 BF=171400)
.MODEL DM1 D(IS=1.179E-19)
.MODEL DM2 D(IS=8e-16)
.ENDS LT1012A
*
***
*
.SUBCKT LT1012D 3 2 7 4 6
* INPUT
RC1 7 80 8842
RC2 7 90 8842
Q1 80 2 10 QM1
Q2 90 3 11 QM2
DDM1 2 3 DM2
DDM2 3 2 DM2
C1 80 90 5.46e-12
RE1 10 12 224.6
RE2 11 12 224.6
IEE 12 4 6e-6
RE 12 0 33330000
CE 12 0 1.579E-12
* INTERMEDIATE
GCM 0 8 12 0 2.841E-11
GA 8 0 80 90 1.131E-04
R2 8 0 100000
C2 1 8 3e-11
GB 1 0 8 0 196
* OUTPUT
RO1 1 6 100
RO2 1 0 900
RC 17 0 1.063E-04
GC 0 17 6 0 9408
D1 1 17 DM1
D2 17 1 DM1
D3 6 13 DM2
D4 14 6 DM2
VC 7 13 1.785
VE 14 4 1.785
IP 7 4 0.000374
DSUB 4 7 DM2
* MODELS
.MODEL QM1 NPN(IS=8e-16 BF=75000)
.MODEL QM2 NPN(IS=8.004E-16 BF=150000)
.MODEL DM1 D(IS=1.179E-19)
.MODEL DM2 D(IS=8e-16)
.ENDS LT1012D
*
***
*
.SUBCKT LT1012S8 3 2 7 4 6
* INPUT
RC1 7 80 8842
RC2 7 90 8842
Q1 80 2 10 QM1
Q2 90 3 11 QM2
DDM1 2 3 DM2
DDM2 3 2 DM2
C1 80 90 5.46e-12
RE1 10 12 224.6
RE2 11 12 224.6
IEE 12 4 6e-6
RE 12 0 33330000
CE 12 0 1.579E-12
* INTERMEDIATE
GCM 0 8 12 0 2.841E-11
GA 8 0 80 90 1.131E-04
R2 8 0 100000
C2 1 8 3e-11
GB 1 0 8 0 196
* OUTPUT
RO1 1 6 100
RO2 1 0 900
RC 17 0 1.063E-04
GC 0 17 6 0 9408
D1 1 17 DM1
D2 17 1 DM1
D3 6 13 DM2
D4 14 6 DM2
VC 7 13 1.785
VE 14 4 1.785
IP 7 4 0.000374
DSUB 4 7 DM2
* MODELS
.MODEL QM1 NPN(IS=8e-16 BF=28570)
.MODEL QM2 NPN(IS=8.005E-16 BF=54550)
.MODEL DM1 D(IS=1.179E-19)
.MODEL DM2 D(IS=8e-16)
.ENDS LT1012S8
*
***
*
.SUBCKT LT1013D 1 2 3 4 5
C1 11 12 8.661E-12
C2 6 7 3e-11
DC 8 53 DX
DE 54 8 DX
DLP 90 91 DX
DLN 92 90 DX
DP 4 3 DX
EGND 99 0 POLY(2) (3,0) (4,0) 0 .5 .5
FB 7 99 POLY(5) VB VC VE VLP VLN 0 2.475E9 -2E9 2E9 2E9 -2E9
GA 6 0 11 12 113.1E-6
GCM 0 6 10 99 225.7E-12
IEE 3 10 DC 12.03E-6
HLIM 90 0 VLIM 1K
Q1 11 102 13 QM1
Q2 12 101 14 QM2
RB1 2 102 400
RB2 1 101 400
DCM1 105 102 DX
DCM2 105 101 DX
VCMC 105 4 DC 0.4
R2 6 9 100000
RC1 4 11 8841
RC2 4 12 8841
RE1 13 10 4519
RE2 14 10 4519
REE 10 99 16.63E6
RO1 8 5 80
RO2 7 99 25
IP 3 4 328E-6
VB 9 0 DC 0
VC 3 53 DC 1.610
VE 54 4 DC .61
VLIM 7 8 DC 0
VLP 91 0 DC 25
VLN 0 92 DC 25
.MODEL DX D(IS=8e-16)
.MODEL QM1 PNP(IS=8e-16 BF=397.4)
.MODEL QM2 PNP(IS=8.062E-16 BF=402.7)
.ENDS LT1013D
*
***
*
*
***
*
*CCM Fri May 15 9:55:34 1998
* V+ IN+ IN- V- LE GND Q+ Q-
.SUBCKT LT1016 1 2 3 4 5 6 7 8
XCOMP 2 3 7 8 1 4 6 5 COMP1016
.ENDS LT1016
*
.SUBCKT LT1001A 3 2 7 4 6
* INPUT
RC1 7 80 6631
RC2 7 90 6631
Q1 80 102 10 QM1
Q2 90 103 11 QM2
RB1 2 102 500
RB2 3 103 500
DDM1 102 104 DM2
DDM3 104 103 DM2
DDM2 103 105 DM2
DDM4 105 102 DM2
C1 80 90 8.66e-12
RE1 10 12 1409
RE2 11 12 1409
IEE 12 4 9.901e-6
RE 12 0 20200000
CE 12 0 1.579E-12
* INTERMEDIATE
GCM 0 8 12 0 7.558E-11
GA 8 0 80 90 1.508E-04
R2 8 0 100000
C2 1 8 3e-11
GB 1 0 8 0 1538
* OUTPUT
RO1 1 6 25.75
RO2 1 0 34.25
RC 17 0 4.228e-6
GC 0 17 6 0 236500
D1 1 17 DM1
D2 17 1 DM1
D3 6 13 DM2
D4 14 6 DM2
VC 7 13 1.803
VE 14 4 1.803
IP 7 4 0.00159
DSUB 4 7 DM2
* MODELS
.MODEL QM1 NPN(IS=8e-16 BF=7692)
.MODEL QM2 NPN(IS=8.003E-16 BF=14290)
.MODEL DM1 D(IS=2.331e-8)
.MODEL DM2 D(IS=8e-16)
.ENDS LT1001A
*
***
*
.SUBCKT LT1006 1 2 3 4 5
C1 11 12 8.661E-12
C2 6 7 3e-11
DC 8 53 DX
DE 54 8 DX
DLP 90 91 DX
DLN 92 90 DX
DP 4 3 DX
EGND 99 0 POLY(2) (3,0) (4,0) 0 .5 .5
FB 7 99 POLY(5) VB VC VE VLP VLN 0 2.475E9 -2E9 2E9 2E9 -2E9
GA 6 0 11 12 113.1E-6
GCM 0 6 10 99 225.7E-12
IEE 3 10 DC 12.03E-6
HLIM 90 0 VLIM 1K
Q1 11 102 13 QM1
Q2 12 101 14 QM2
RB1 2 102 400
RB2 1 101 400
DCM1 105 102 DX
DCM2 105 101 DX
VCMC 105 4 DC 0.4
R2 6 9 100000
RC1 4 11 8841
RC2 4 12 8841
RE1 13 10 4519
RE2 14 10 4519
REE 10 99 16.63E6
RO1 8 5 80
RO2 7 99 25
IP 3 4 328E-6
VB 9 0 DC 0
VC 3 53 DC 1.610
VE 54 4 DC .61
VLIM 7 8 DC 0
VLP 91 0 DC 25
VLN 0 92 DC 25
.MODEL DX D(IS=8e-16)
.MODEL QM1 PNP(IS=8e-16 BF=595.5)
.MODEL QM2 PNP(IS=8.009E-16 BF=604.5)
.ENDS LT1006
*
***
*
.SUBCKT LT1006A 1 2 3 4 5
* INPUT
C1 11 12 8.661E-12
C2 6 7 3e-11
DC 8 53 DX
DE 54 8 DX
DLP 90 91 DX
DLN 92 90 DX
DP 4 3 DX
EGND 99 0 POLY(2) (3,0) (4,0) 0 .5 .5
FB 7 99 POLY(5) VB VC VE VLP VLN 0 2.475E9 -2E9 2E9 2E9 -2E9
GA 6 0 11 12 113.1E-6
GCM 0 6 10 99 225.7E-12
IEE 3 10 DC 12.03E-6
HLIM 90 0 VLIM 1K
Q1 11 102 13 QM1
Q2 12 101 14 QM2
RB1 2 102 400
RB2 1 101 400
DCM1 105 102 DX
DCM2 105 101 DX
VCMC 105 4 DC 0.4
R2 6 9 100000
RC1 4 11 8841
RC2 4 12 8841
RE1 13 10 4519
RE2 14 10 4519
REE 10 99 16.63E6
RO1 8 5 80
RO2 7 99 25
IP 3 4 328E-6
VB 9 0 DC 0
VC 3 53 DC 1.610
VE 54 4 DC .61
VLIM 7 8 DC 0
VLP 91 0 DC 25
VLN 0 92 DC 25
.MODEL DX D(IS=8e-16)
.MODEL QM1 PNP(IS=8e-16 BF=662.3)
.MODEL QM2 PNP(IS=8.006E-16 BF=671.1)
.ENDS LT1006A
*
***
*
.SUBCKT LT1006S8 1 2 3 4 5
*
C1 11 12 8.661E-12
C2 6 7 3e-11
DC 8 53 DX
DE 54 8 DX
DLP 90 91 DX
DLN 92 90 DX
DP 4 3 DX
EGND 99 0 POLY(2) (3,0) (4,0) 0 .5 .5
FB 7 99 POLY(5) VB VC VE VLP VLN 0 2.475E9 -2E9 2E9 2E9 -2E9
GA 6 0 11 12 113.1E-6
GCM 0 6 10 99 225.7E-12
IEE 3 10 DC 12.03E-6
HLIM 90 0 VLIM 1K
Q1 11 102 13 QM1
Q2 12 101 14 QM2
RB1 2 102 400
RB2 1 101 400
DCM1 105 102 DX
DCM2 105 101 DX
VCMC 105 4 DC 0.4
R2 6 9 100000
RC1 4 11 8841
RC2 4 12 8841
RE1 13 10 4519
RE2 14 10 4519
REE 10 99 16.63E6
RO1 8 5 80
RO2 7 99 25
IP 3 4 328E-6
VB 9 0 DC 0
VC 3 53 DC 1.610
VE 54 4 DC .61
VLIM 7 8 DC 0
VLP 91 0 DC 25
VLN 0 92 DC 25
.MODEL DX D(IS=8e-16)
.MODEL QM1 PNP(IS=8e-16 BF=595.5)
.MODEL QM2 PNP(IS=8.025E-16 BF=604.5)
.ENDS LT1006S8
*
***
*
.SUBCKT LT1007 3 2 7 4 6
RC1 7 80 663.15
RC2 7 90 663.15
Q1 80 2 10 QM1
Q2 90 3 11 QM2
*
C1 80 91 200E-12
RXC1 91 90 50
CXC1 91 90 500E-12
C2 8 98 4e-12
RXC2 8 98 4.00K
CXC2 1 98 2.7e-11
*
CIN 3 2 5E-12
DDM1 2 104 DM2
DDM3 104 3 DM2
DDM2 3 105 DM2
DDM4 105 2 DM2
RE1 10 12 -26.233
RE2 11 12 -26.233
IEE 12 4 7.503e-5
RE 12 0 2666000
CE 12 0 1.579E-12
GCM 0 8 12 0 7.558E-10
GA 8 0 80 90 0.001508
R2 8 0 100000
GB 1 0 8 0 1917.6
RO2 1 0 69
*
RS 1 6 1
ECL 18 0 1 6 28.28
GCL 0 8 20 0 1
RCL 20 0 1E3
D1 18 20 DM1
D2 20 18 DM1
*
D3A 131 70 DM3
D3B 13 131 DM3
GPL 0 8 70 7 1
VC 13 6 3.0909
RPLA 7 70 1E4
RPLB 7 131 1E5
D4A 60 141 DM3
D4B 141 14 DM3
GNL 0 8 60 4 1
VE 6 14 3.0909
RNLA 60 4 1E4
RNLB 141 4 1E5
*
IP 7 4 0.002625
DSUB 4 7 DM2
* MODELS
.MODEL QM1 NPN(IS=8e-16 BF=1785.7)
.MODEL QM2 NPN(IS=8.0062E-16 BF=4166.7)
.MODEL DM1 D(IS=1e-19)
.MODEL DM2 D(IS=8e-16)
.MODEL DM3 D(IS=1e-20)
.ENDS LT1007
*
***
*
.SUBCKT LT1007A 3 2 7 4 6
RC1 7 80 663.15
RC2 7 90 663.15
Q1 80 2 10 QM1
Q2 90 3 11 QM2
*
C1 80 91 200E-12
RXC1 91 90 50
CXC1 91 90 500E-12
C2 8 98 4e-12
RXC2 8 98 4.00K
CXC2 1 98 2.7e-11
*
CIN 3 2 5E-12
DDM1 2 104 DM2
DDM3 104 3 DM2
DDM2 3 105 DM2
DDM4 105 2 DM2
RE1 10 12 -26.233
RE2 11 12 -26.233
IEE 12 4 7.503e-5
RE 12 0 2666000
CE 12 0 1.579E-12
GCM 0 8 12 0 7.558E-10
GA 8 0 80 90 0.001508
R2 8 0 100000
GB 1 0 8 0 1917.6
RO2 1 0 69
*
RS 1 6 1
ECL 18 0 1 6 28.28
GCL 0 8 20 0 1
RCL 20 0 1E3
D1 18 20 DM1
D2 20 18 DM1
*
D3A 131 70 DM3
D3B 13 131 DM3
GPL 0 8 70 7 1
VC 13 6 3.0909
RPLA 7 70 1E4
RPLB 7 131 1E5
D4A 60 141 DM3
D4B 141 14 DM3
GNL 0 8 60 4 1
VE 6 14 3.0909
RNLA 60 4 1E4
RNLB 141 4 1E5
*
IP 7 4 0.002625
DSUB 4 7 DM2
* MODELS
.MODEL QM1 NPN(IS=8e-16 BF=2778)
.MODEL QM2 NPN(IS=8.003E-16 BF=5769)
.MODEL DM1 D(IS=1e-19)
.MODEL DM2 D(IS=8e-16)
.MODEL DM3 D(IS=1e-20)
.ENDS LT1007A
*
***
*
* NODES 1 AND 8 = COMPENSATION PINS
.SUBCKT LT1008 3 2 7 4 6 1 8
* USE C=30 PF IN MAIN CIRCUIT (CA TO CB).
* INPUT
RC1 7 80 8842
RC2 7 90 8842
Q1 80 2 10 QM1
Q2 90 3 11 QM2
DDM1 2 3 DM2
DDM2 3 2 DM2
C1 80 90 8.66e-12
RE1 10 12 224.6
RE2 11 12 224.6
IEE 12 4 6e-6
RE 12 0 33330000
CE 12 0 1.579E-12
* INTERMEDIATE
GCM 0 8 12 0 2.841E-11
GA 8 0 80 90 1.131E-04
R2 8 0 100000
* EXTERNAL COMP CAP USED FOR C2 (SEE NOTE ABOVE).
GB 1 0 8 0 196
* OUTPUT
RO1 1 6 100
RO2 1 0 900
RC 17 0 6.802e-5
GC 0 17 6 0 14700
D1 1 17 DM1
D2 17 1 DM1
D3 6 13 DM2
D4 14 6 DM2
VC 7 13 1.774
VE 14 4 1.774
IP 7 4 0.000374
DSUB 4 7 DM2
* MODELS
.MODEL QM1 NPN(IS=8e-16 BF=66670)
.MODEL QM2 NPN(IS=8.009E-16 BF=200000)
.MODEL DM1 D(IS=4.276E-12)
.MODEL DM2 D(IS=8e-16)
.ENDS LT1008
*
***
*
*CCM Wed May 20 16:28:21 1998
*LT1010CT PINOUT IN V+ V- BIAS OUTPUT
.SUBCKT LT1010    1 3  4    6    5
* input stage
CIN 1 99 1.4139e-12
RIN 1 99 86124000
Q1 11 2 13 Q1
Q2 12 1 14 Q2
RC1 444 11 273.59
RC2 444 12 273.59
VCMIR 444 4 DC -1.0
RE1 10 13 91.059
RE2 10 14 91.059
C1 11 12 1.2437e-12
RFB 2 16 100
EFB 16 99 50 99 1.003
IEE 3 10 DC 0.0074602
*GSR 3 10 11 12 1.2286e-003
GSR 3 10 POLY(2) 11 12 121 0 0 0 0 0 0.0012286
D1 10 3 DX
GA 60 99 11 12 0.0036551
* bias and SR control
RBIAS1 6 3 1.0E12
VBIAS1 6 120 DC 0
IBIAS1 120 3 DC 0.605
RBIAS2 3 120 1.33
FBIAS1 3 4 VBIAS1 1.0
FSR1 0 121 POLY(1) VBIAS1 1.0E-3 -0.0265
RSR1 121 0 1.0E3
FSR2 3 10 VBIAS1 0.0737
* noise voltage
GR 99 60 605 606 8.6534
IR1 0 605 DC 1
IR2 0 606 DC 1
DR1 605 0 DR
DR2 606 0 DR
* output stage
R2 60 99 1000000
C2 60 99 6.2599e-11
DC 53 3 DX
DE 4 54 DX
VC 53 60 DC 0.86
VE 60 54 DC 1.7324
GB 70 99 60 99 0.14286
R01 70 99 7
R02 70 50 0.1
R03 50 5 7.5
R04 5 99 1.0000e+012
ELIM1 91 0 70 50 25.906
ELIM2 92 0 70 50 21.823
DLP 91 90 DX
DLN 90 92 DX
VLIM 90 0 DC 0
FB 70 99 VLIM 20.655
* supply characteristic
EGND 99 0 POLY(2) 3 0 4 0 0 0.5 0.5
IP 3 4 DC -0.0024602
RP 3 4 150000
GV 31 0 70 50 10
DP1 3 31 DX
DP2 32 4 DX
RGV 32 33 10.0
EGV 31 33 POLY(1) 3 4 -0.8 1.0
.MODEL Q1 PNP IS=3.7926e-15 BF=48.7 XTB=-1.3209
+ XTI=5.50008
.MODEL Q2 PNP IS=2.6367e-16 BF=48.7 XTB=-1.3209
+ XTI=0.499918
.MODEL DX D IS=8e-16 RS=0 XTI=0
.MODEL DR D IS=8e-16 KF=8.0939e-17 RS=0 XTI=0
.ENDS LT1010
*
***
*
.SUBCKT LT1012 3 2 7 4 6
* INPUT
RC1 7 80 8842
RC2 7 90 8842
Q1 80 2 10 QM1
Q2 90 3 11 QM2
DDM1 2 3 DM2
DDM2 3 2 DM2
C1 80 90 5.46e-12
RE1 10 12 224.6
RE2 11 12 224.6
IEE 12 4 6e-6
RE 12 0 33330000
CE 12 0 1.579E-12
* INTERMEDIATE
GCM 0 8 12 0 2.841E-11
GA 8 0 80 90 1.131E-04
R2 8 0 100000
C2 1 8 3e-11
GB 1 0 8 0 196
* OUTPUT
RO1 1 6 100
RO2 1 0 900
RC 17 0 1.063E-04
GC 0 17 6 0 9408
D1 1 17 DM1
D2 17 1 DM1
D3 6 13 DM2
D4 14 6 DM2
VC 7 13 1.785
VE 14 4 1.785
IP 7 4 0.000374
DSUB 4 7 DM2
* MODELS
.MODEL QM1 NPN(IS=8e-16 BF=75000)
.MODEL QM2 NPN(IS=8.003E-16 BF=150000)
.MODEL DM1 D(IS=1.179E-19)
.MODEL DM2 D(IS=8e-16)
.ENDS LT1012
*
***
*
.SUBCKT LT1012A 3 2 7 4 6
* INPUT
RC1 7 80 8842
RC2 7 90 8842
Q1 80 2 10 QM1
Q2 90 3 11 QM2
DDM1 2 3 DM2
DDM2 3 2 DM2
C1 80 90 5.46e-12
RE1 10 12 224.6
RE2 11 12 224.6
IEE 12 4 6e-6
RE 12 0 33330000
CE 12 0 1.579E-12
* INTERMEDIATE
GCM 0 8 12 0 2.841E-11
GA 8 0 80 90 1.131E-04
R2 8 0 100000
C2 1 8 3e-11
GB 1 0 8 0 196
* OUTPUT
RO1 1 6 100
RO2 1 0 900
RC 17 0 1.063E-04
GC 0 17 6 0 9408
D1 1 17 DM1
D2 17 1 DM1
D3 6 13 DM2
D4 14 6 DM2
VC 7 13 1.785
VE 14 4 1.785
IP 7 4 0.000374
DSUB 4 7 DM2
* MODELS
.MODEL QM1 NPN(IS=8e-16 BF=92310)
.MODEL QM2 NPN(IS=8.002E-16 BF=171400)
.MODEL DM1 D(IS=1.179E-19)
.MODEL DM2 D(IS=8e-16)
.ENDS LT1012A
*
***
*
.SUBCKT LT1012D 3 2 7 4 6
* INPUT
RC1 7 80 8842
RC2 7 90 8842
Q1 80 2 10 QM1
Q2 90 3 11 QM2
DDM1 2 3 DM2
DDM2 3 2 DM2
C1 80 90 5.46e-12
RE1 10 12 224.6
RE2 11 12 224.6
IEE 12 4 6e-6
RE 12 0 33330000
CE 12 0 1.579E-12
* INTERMEDIATE
GCM 0 8 12 0 2.841E-11
GA 8 0 80 90 1.131E-04
R2 8 0 100000
C2 1 8 3e-11
GB 1 0 8 0 196
* OUTPUT
RO1 1 6 100
RO2 1 0 900
RC 17 0 1.063E-04
GC 0 17 6 0 9408
D1 1 17 DM1
D2 17 1 DM1
D3 6 13 DM2
D4 14 6 DM2
VC 7 13 1.785
VE 14 4 1.785
IP 7 4 0.000374
DSUB 4 7 DM2
* MODELS
.MODEL QM1 NPN(IS=8e-16 BF=75000)
.MODEL QM2 NPN(IS=8.004E-16 BF=150000)
.MODEL DM1 D(IS=1.179E-19)
.MODEL DM2 D(IS=8e-16)
.ENDS LT1012D
*
***
*
.SUBCKT LT1012S8 3 2 7 4 6
* INPUT
RC1 7 80 8842
RC2 7 90 8842
Q1 80 2 10 QM1
Q2 90 3 11 QM2
DDM1 2 3 DM2
DDM2 3 2 DM2
C1 80 90 5.46e-12
RE1 10 12 224.6
RE2 11 12 224.6
IEE 12 4 6e-6
RE 12 0 33330000
CE 12 0 1.579E-12
* INTERMEDIATE
GCM 0 8 12 0 2.841E-11
GA 8 0 80 90 1.131E-04
R2 8 0 100000
C2 1 8 3e-11
GB 1 0 8 0 196
* OUTPUT
RO1 1 6 100
RO2 1 0 900
RC 17 0 1.063E-04
GC 0 17 6 0 9408
D1 1 17 DM1
D2 17 1 DM1
D3 6 13 DM2
D4 14 6 DM2
VC 7 13 1.785
VE 14 4 1.785
IP 7 4 0.000374
DSUB 4 7 DM2
* MODELS
.MODEL QM1 NPN(IS=8e-16 BF=28570)
.MODEL QM2 NPN(IS=8.005E-16 BF=54550)
.MODEL DM1 D(IS=1.179E-19)
.MODEL DM2 D(IS=8e-16)
.ENDS LT1012S8
*
***
*
.SUBCKT LT1013D 1 2 3 4 5
C1 11 12 8.661E-12
C2 6 7 3e-11
DC 8 53 DX
DE 54 8 DX
DLP 90 91 DX
DLN 92 90 DX
DP 4 3 DX
EGND 99 0 POLY(2) (3,0) (4,0) 0 .5 .5
FB 7 99 POLY(5) VB VC VE VLP VLN 0 2.475E9 -2E9 2E9 2E9 -2E9
GA 6 0 11 12 113.1E-6
GCM 0 6 10 99 225.7E-12
IEE 3 10 DC 12.03E-6
HLIM 90 0 VLIM 1K
Q1 11 102 13 QM1
Q2 12 101 14 QM2
RB1 2 102 400
RB2 1 101 400
DCM1 105 102 DX
DCM2 105 101 DX
VCMC 105 4 DC 0.4
R2 6 9 100000
RC1 4 11 8841
RC2 4 12 8841
RE1 13 10 4519
RE2 14 10 4519
REE 10 99 16.63E6
RO1 8 5 80
RO2 7 99 25
IP 3 4 328E-6
VB 9 0 DC 0
VC 3 53 DC 1.610
VE 54 4 DC .61
VLIM 7 8 DC 0
VLP 91 0 DC 25
VLN 0 92 DC 25
.MODEL DX D(IS=8e-16)
.MODEL QM1 PNP(IS=8e-16 BF=397.4)
.MODEL QM2 PNP(IS=8.062E-16 BF=402.7)
.ENDS LT1013D
*
***
*
.SUBCKT LT1022 3 2 7 4 6
* INPUT
VCM2 40 4 2
RD1 40 80 663.15
RD2 40 90 663.15
J1 80 102 12 JM1
J2 90 103 12 JM2
CIN 2 3 4e-12
RG1 2 102 2
RG2 3 103 2
** CM CLAMP
* DCM1 107 103 DM4
* DCM2 105 107 DM4
* VCMC 105 4 4.0E+00
* ECMP 106 4 103 4 1
* RCMP 107 106 1E+04
* DCM3 109 102 DM4
* DCM4 105 109 DM4
* ECMN 108 4 102 4 1
* RCMN 109 108 1E+04
** END CM CLAMP
C1 80 90 1.5e-11
ISS 7 12 0.001
GOSIT 7 12 90 80 0.0005
* INTERMEDIATE
GCM 0 8 12 0 3.7878e-8
GA 8 0 80 90 0.001508
R2 8 0 100000
C2 1 8 3e-11
GB 1 0 8 0 53.878
RO2 1 0 49
* OUTPUT
RSO 1 6 1
ECL 18 0 1 6 17.891
GCL 0 8 20 0 1
RCL 20 0 1000
D1 18 20 DM1
D2 20 18 DM1
*
D3A 131 70 DM3
D3B 13 131 DM3
GPL 0 8 70 7 1
VC 13 6 2.9759
RPLA 7 70 10000
RPLB 7 131 100000
D4A 60 141 DM3
D4B 141 14 DM3
GNL 0 8 60 4 1
VE 6 14 2.9759
RNLA 60 4 10000
RNLB 141 4 100000
*
IP 7 4 0.0042
DSUB 4 7 DM2
* MODELS
.MODEL JM1 PJF(IS=1.1e-11 BETA=0.001137 VTO=-1)
.MODEL JM2 PJF(IS=9e-12 BETA=0.001137 VTO=-0.9999)
.MODEL DM1 D(IS=1e-15)
.MODEL DM2 D(IS=8e-16 BV=48)
.MODEL DM3 D(IS=1e-16)
.MODEL DM4 D(IS=1e-9)
.ENDS LT1022
*
***
*
.SUBCKT LT1022A 3 2 7 4 6
* INPUT
VCM2 40 4 2
RD1 40 80 663.15
RD2 40 90 663.15
J1 80 102 12 JM1
J2 90 103 12 JM2
CIN 2 3 4e-12
RG1 2 102 2
RG2 3 103 2
** CM CLAMP
* DCM1 107 103 DM4
* DCM2 105 107 DM4
* VCMC 105 4 4.0E+00
* ECMP 106 4 103 4 1
* RCMP 107 106 1E+04
* DCM3 109 102 DM4
* DCM4 105 109 DM4
* ECMN 108 4 102 4 1
* RCMN 109 108 1E+04
** END CM CLAMP
C1 80 90 1.5e-11
ISS 7 12 0.001
GOSIT 7 12 90 80 0.0005
* INTERMEDIATE
GCM 0 8 12 0 3.0088e-8
GA 8 0 80 90 0.001508
R2 8 0 100000
C2 1 8 3e-11
GB 1 0 8 0 53.878
RO2 1 0 49
* OUTPUT
RSO 1 6 1
ECL 18 0 1 6 17.891
GCL 0 8 20 0 1
RCL 20 0 1000
D1 18 20 DM1
D2 20 18 DM1
*
D3A 131 70 DM3
D3B 13 131 DM3
GPL 0 8 70 7 1
VC 13 6 2.9759
RPLA 7 70 10000
RPLB 7 131 100000
D4A 60 141 DM3
D4B 141 14 DM3
GNL 0 8 60 4 1
VE 6 14 2.9759
RNLA 60 4 10000
RNLB 141 4 100000
*
IP 7 4 0.0042
DSUB 4 7 DM2
* MODELS
.MODEL JM1 PJF(IS=1.1e-11 BETA=0.001137 VTO=-1)
.MODEL JM2 PJF(IS=9e-12 BETA=0.001137 VTO=-0.99992)
.MODEL DM1 D(IS=1e-15)
.MODEL DM2 D(IS=8e-16 BV=48)
.MODEL DM3 D(IS=1e-16)
.MODEL DM4 D(IS=1e-9)
.ENDS LT1022A
*
***
*
.SUBCKT LT1028CS 3 2 7 4 6
X1 3 2 7 4 6 7 8 LT1028
.ENDS LT1028CS
*
***
*
* Copyright © Linear Technology Corp. 12/20/06. All rights reserved.
* Pinout: IN+ IN- VCC VEE OUT NULL(Pin1) NULL(Pin8)
.SUBCKT LT1028 3 2 7 4 6 1 8
IBIASDEF2 0 2 13n
IBIASDEF1 0 3 25n
RG1 22 0 37240
CG1 22 0 1E-6
GCM2 0 51 50 4 1E-7
RCMRR 51 0 1E3
GPSRR 0 53 7 4 1.78E-8
RPSRR1 53 0 1E3
RVNOI 41 0 2.2E6
DVNF 42 0 DVNOI
IVNF 0 42 1
GG5 0 25 22 0 6.2832
RG5 25 0 0.159155
CG5 25 0 1.5E-6
IDUM1 41 0 0
DVNFX 43 0 DVNOIX
IVNFX 0 43 1
RINX 21 0 0.267
GG1 0 22 VALUE={22.5*TANH(V(21))}
MOUT1 77 29 6 6 NOUT
MOUT2 44 29 6 6 POUT
DVL1 23 22 DVLIM
DVL2 23 0 DVLIM
EICM 50 0 VALUE={(V(3)+V(2))/2}
CCMRR 50 52 2.5E-11
RCMRR2 52 51 2k
GIN2 0 21 VALUE={V(101,102)+V(41)+V(42,43)+V(51)+V(53)+1E-5}
GB 0 29 VALUE={3.14*(V(7)+V(4))}
GG2 0 26 25 0 6.2832
RG2 26 0 0.159155
CG2 26 0 1.5E-8
GINOI1 3 0 41 0 1.17E-3
GINOI2 2 0 41 0 1.17E-3
DIN5 2 3 DIN
DIN6 3 2 DIN
GIN1 102 101 3 2 0.035
IIN1 101 4 9E-4
IIN2 102 4 9E-4
RIN1 1 101 3E3
RIN2 8 102 3E3
RIN3 7 1 130
RIN4 7 8 130
GG3 0 27 26 0 0.1
RG3 28 27 10
RG4 0 28 200
LG1 28 0 5E-7
GLIM1 7 77 VALUE={MIN(0.03,(V(7,77)-2))}
GLIM2 44 4 VALUE={MIN(0.03,(V(44,4)-2))}
CIN1 4 3 5E-12
CIN2 2 4 5E-12
GG4 0 29 27 0 6.2832
RG6 29 0 0.159155
CG3 29 0 1.0E-8
ITYP 7 4 5.6E-3
.MODEL NOUT NMOS(KF=0 KP=5 VTO=-1m RD=0)
.MODEL POUT PMOS(KF=0 KP=5 VTO=1m RD=0)
.MODEL DIN D(KF=0 RS=0 IS=1E-16)
.MODEL DVLIM D(BV=18 IS=1E-10 KF=0 RS=0)
.MODEL DVNOIX D(KF=0 RS=0)
.MODEL DVNOI D(RS=0 KF=2E-10)
.ENDS LT1028
*
***
*
.SUBCKT LT1028A 3 2 7 4 6
RC1 7 80 70.736
RC2 7 90 70.736
Q1 80 2 10 QM1
Q2 90 3 11 QM2
*
C1 80 91 750E-12
RXC1 91 90 50
CXC1 91 90 400E-12
C2 1 98 3e-11
RXC2 98 8 1K
CXC2 98 8 1e-11
*
CIN 2 3 15E-12
RIN 2 3 2E4
DDM1 2 104 DM2
DDM3 104 3 DM2
DDM2 3 105 DM2
DDM4 105 2 DM2
RE1 10 12 -44.157
RE2 11 12 -44.157
IEE 12 4 4.5006E-04
RE 12 0 444390
CE 12 0 1.5789E-12
GCM 0 8 12 0 7.0854e-9
GA 8 0 80 90 0.014137
R2 8 0 100000
GB 1 0 8 0 267.31
RO2 1 0 79
*
RS 1 6 1
ECL 18 0 1 6 27.91
GCL 0 8 20 0 1
RCL 20 0 1E3
D1 18 20 DM1
D2 20 18 DM1
*
D3A 131 70 DM3
D3B 13 131 DM3
GPL 0 8 70 7 1
VC 13 6 3.6394
RPLA 7 70 1E4
RPLB 7 131 1E5
D4A 60 141 DM3
D4B 141 14 DM3
GNL 0 8 60 4 1
VE 6 14 3.6394
RNLA 60 4 1E4
RNLB 141 4 1E5
*
IP 7 4 0.00745
DSUB 4 7 DM2
* MODELS
.MODEL QM1 NPN(IS=8e-16 BF=7258)
.MODEL QM2 NPN(IS=8.003E-16 BF=11840)
.MODEL DM1 D(IS=1e-19)
.MODEL DM2 D(IS=8e-16)
.MODEL DM3 D(IS=1e-20)
.ENDS LT1028A
*
***
*
*CCM Tue May 19 15:37:45 1998
.SUBCKT LT1028N 1 2 3 4 5 6
* input protection
DIP1 1 114 DX
DIP2 114 2 DX
DIP3 2 115 DX
DIP4 115 1 DX
* input stage
CIN 1 2 5e-12
GRIN 1 2 1 2 4.9568e-5
Q1 11 2 13 Q1
Q2 12 111 14 Q2
GRC1 3 11 3 11 0.00087653
GRC2 3 12 3 12 0.00087653
*GRE1 10 13 10 13 2.8667e-001
*GRE2 10 14 10 14 2.8667e-001
* add 3dB gain
GRE1 10 13 10 13 -0.12667
GRE2 10 14 10 14 -0.12667
C1 11 12 2.9063e-12
IEE 10 4 DC 0.0017531
D1 4 10 DX
GA 60 99 11 12 0.00087653
* noise sources
FRI1 99 1 VRI1 1
VRI1 101 0 DC 0
RRI1 101 0 16823
FRI2 99 2 VRI2 1
VRI2 201 0 DC 0
RRI2 201 0 16823
GR 99 60 605 606 0.78354
IR1 0 605 DC 1
IR2 0 606 DC 1
DR1 605 0 DR
DR2 606 0 DR
* common mode rejection
GCM1 99 20 POLY(2) 1 99 2 99 0 0.0005 0.0005
RCM1 21 99 1000
RCM2 20 99 1000000
LCM 20 21 0.22736
ECM 111 1 20 99 5.0119e-7
* frequency shaper
RP1 601 99 2381
CP1 60 601 1.2855e-11
RP11 60 99 10000
GP1 99 61 60 99 0.0001
RP2 61 99 10000
CP2 61 99 7.9577e-13
GP2 99 62 61 99 0.0001
RP3 621 99 13514
LP3 62 621 0.0004136
RP33 62 99 38462
GP3 99 6 62 99 0.0001
* output stage
R2 6 99 1000
C2 6 7 9.9e-11
GB 7 99 6 99 12605
R01 7 99 51.017
R02 7 50 0.1
R03 50 5 28.883
R04 5 99 1.0000e+012
VC 53 50 DC 3.1
VE 54 50 DC -3.1
DC1 53 55 DX
DC2 55 56 DX
DE1 57 54 DX
DE2 58 57 DX
GVC1 3 56 3 56 1.0E-4
GVE1 4 58 4 58 1.0E-4
GVC2 3 55 3 55 1.0E-5
GVE2 4 57 4 57 1.0E-5
GVLP 99 60 56 3 1
GVLN 99 60 58 4 1
ECLP 91 0 7 50 250
ECLN 92 0 7 50 250
DCLP 91 90 DX
DCLN 90 92 DX
VLIM 90 0 DC 0
FB 7 99 VLIM 437.2
* supply characteristic
EGND 99 0 POLY(2) 3 0 4 0 0 0.5 0.5
DSUB 4 3 DX
IP 3 4 DC 0.0058469
GV 31 0 7 50 10
DP1 3 31 DX
DP2 33 4 DX
RGV 32 33 10.0
EGV 31 32 POLY(1) 3 4 -0.8 1.0
.MODEL DX D IS=8e-16 RS=0 XTI=0
.MODEL Q1 NPN IS=9.9962e-16 BF=28275.3 XTB=1.1751
+ XTI=2.9998 KF=1.6891e-14
.MODEL Q2 NPN IS=1.0004e-15 BF=58435.6 XTB=1.0246
+ XTI=3.0002 KF=1.6891e-14
.MODEL DR D IS=8e-16 KF=2.874e-18 RS=0 XTI=0
.ENDS LT1028N
*
***
*
.SUBCKT LT1037 3 2 7 4 6
RC1 7 80 663.15
RC2 7 90 663.15
Q1 80 2 10 QM1
Q2 90 3 11 QM2
*
C1 80 91 200E-12
RXC1 91 90 200
CXC1 91 90 200E-12
C2 8 98 1e-12
RXC2 8 98 10.00K
CXC2 1 98 5e-12
*
CIN 3 2 5E-12
DDM1 2 104 DM2
DDM3 104 3 DM2
DDM2 3 105 DM2
DDM4 105 2 DM2
RE1 10 12 -26.233
RE2 11 12 -26.233
IEE 12 4 7.503e-5
RE 12 0 2666000
CE 12 0 1.579E-12
GCM 0 8 12 0 7.558E-10
GA 8 0 80 90 0.001508
R2 8 0 100000
GB 1 0 8 0 1917.6
RO2 1 0 69
*
RS 1 6 1
ECL 18 0 1 6 28.28
GCL 0 8 20 0 1
RCL 20 0 1E3
D1 18 20 DM1
D2 20 18 DM1
*
D3A 131 70 DM3
D3B 13 131 DM3
GPL 0 8 70 7 1
VC 13 6 3.0909
RPLA 7 70 1E4
RPLB 7 131 1E5
D4A 60 141 DM3
D4B 141 14 DM3
GNL 0 8 60 4 1
VE 6 14 3.0909
RNLA 60 4 1E4
RNLB 141 4 1E5
*
IP 7 4 0.002625
DSUB 4 7 DM2
* MODELS
.MODEL QM1 NPN(IS=8e-16 BF=1785.7)
.MODEL QM2 NPN(IS=8.0062E-16 BF=4166.7)
.MODEL DM1 D(IS=1e-19)
.MODEL DM2 D(IS=8e-16)
.MODEL DM3 D(IS=1e-20)
.ENDS LT1037
*
***
*
.SUBCKT LT1037A 3 2 7 4 6
RC1 7 80 663.15
RC2 7 90 663.15
Q1 80 2 10 QM1
Q2 90 3 11 QM2
*
C1 80 91 200E-12
RXC1 91 90 200
CXC1 91 90 200E-12
C2 8 98 1e-12
RXC2 8 98 10.00K
CXC2 1 98 5e-12
*
CIN 3 2 5E-12
DDM1 2 104 DM2
DDM3 104 3 DM2
DDM2 3 105 DM2
DDM4 105 2 DM2
RE1 10 12 -26.233
RE2 11 12 -26.233
IEE 12 4 7.503e-5
RE 12 0 2666000
CE 12 0 1.579E-12
GCM 0 8 12 0 7.558E-10
GA 8 0 80 90 0.001508
R2 8 0 100000
GB 1 0 8 0 1917.6
RO2 1 0 69
*
RS 1 6 1
ECL 18 0 1 6 28.28
GCL 0 8 20 0 1
RCL 20 0 1E3
D1 18 20 DM1
D2 20 18 DM1
*
D3A 131 70 DM3
D3B 13 131 DM3
GPL 0 8 70 7 1
VC 13 6 3.0909
RPLA 7 70 1E4
RPLB 7 131 1E5
D4A 60 141 DM3
D4B 141 14 DM3
GNL 0 8 60 4 1
VE 6 14 3.0909
RNLA 60 4 1E4
RNLB 141 4 1E5
*
IP 7 4 0.002625
DSUB 4 7 DM2
* MODELS
.MODEL QM1 NPN(IS=8e-16 BF=2778)
.MODEL QM2 NPN(IS=8.003E-16 BF=5769)
.MODEL DM1 D(IS=1e-19)
.MODEL DM2 D(IS=8e-16)
.MODEL DM3 D(IS=1e-20)
.ENDS LT1037A
*
***
*
.SUBCKT LTC1047 3 2 7 4 6
* INPUT
IB1 2 7 -10P
IB2 3 7 10P
RD1 4 80 6631.5
RD2 4 90 6631.5
M1 80 2 12 12 PM1
M2 90 3 12 12 PM2
CIN 2 3 5e-12
DG1 2 7 DMG1
DG2 3 7 DMG2
C1 80 90 1.5e-11
ISS 7 12 2.4e-5
* INTERMEDIATE
GCM 0 8 12 0 4.7686E-11
GA 8 0 80 90 0.0001508
R2 8 0 100000
C2 1 8 3e-11
GB 1 0 8 0 33324
RO2 1 0 199
* OUTPUT
RSO 1 6 1
ECL 18 0 1 6 285.34
GCL 0 8 20 0 1
RCL 20 0 10
D1 18 19 DM1
VOD1 19 20 0
D2 20 21 DM1
VOD2 21 18 1.9974
*
D3A 131 70 DM3
D3B 13 131 DM3
GPL 0 8 70 7 1
VC 13 6 1.3894
RPLA 7 70 10
RPLB 7 131 1000
D4A 60 141 DM3
D4B 141 14 DM3
GNL 0 8 60 4 1
VE 6 14 1.3894
RNLA 60 4 10
RNLB 141 4 1000
*
IP 7 4 0.000176
DSUB 4 7 DM2
* MODELS
.MODEL PM1 PMOS(KP=9.4748E-04 VTO=-1.1)
.MODEL PM2 PMOS(KP=9.4748E-04 VTO=-1.100002)
.MODEL DM1 D(IS=1e-20)
.MODEL DM2 D(IS=8e-16 BV=19.8)
.MODEL DM3 D(IS=1e-16)
.MODEL DMG1 D(IS=7E-12 N=2.31)