.SUBCKT BLF245_14V_50MA 1 2 3 4 5 
* HZ S MA R 
* Z1=50.000000 Z2=50.000000 Z3=50.000000 Z4=50.000000

R1N 1 10 -5.000000e+01
R1P 10 11 1.000000e+02
R2N 2 20 -5.000000e+01
R2P 20 21 1.000000e+02
R3N 3 30 -5.000000e+01
R3P 30 31 1.000000e+02
R4N 4 40 -5.000000e+01
R4P 40 41 1.000000e+02

*S11 FREQ DB PHASE
E11 11 12 FREQ {V(10,5)}=
+(  5.000000e+06gHz, -7.242435e-01, -4.740000e+01)
+(  2.500000e+07gHz, -3.098039e+00, -1.254000e+02)
+(  4.500000e+07gHz, -3.098039e+00, -1.429000e+02)
+(  6.500000e+07gHz, -2.615366e+00, -1.499000e+02)
+(  8.500000e+07gHz, -2.158108e+00, -1.542000e+02)
+(  1.050000e+08gHz, -1.723723e+00, -1.583000e+02)
+(  1.250000e+08gHz, -1.514414e+00, -1.619000e+02)
+(  1.450000e+08gHz, -1.209615e+00, -1.644000e+02)
+(  1.650000e+08gHz, -1.012200e+00, -1.666000e+02)
+(  1.850000e+08gHz, -8.191722e-01, -1.691000e+02)
+(  2.050000e+08gHz, -7.242435e-01, -1.715000e+02)
+(  2.250000e+08gHz, -7.242435e-01, -1.735000e+02)
+(  2.450000e+08gHz, -6.303410e-01, -1.751000e+02)
+(  2.650000e+08gHz, -4.455279e-01, -1.768000e+02)
+(  2.850000e+08gHz, -4.455279e-01, -1.785000e+02)
+(  3.050000e+08gHz, -4.455279e-01, -1.801000e+02)
+(  3.250000e+08gHz, -4.455279e-01, -1.814000e+02)
+(  3.450000e+08gHz, -3.545753e-01, -1.827000e+02)
+(  3.650000e+08gHz, -2.645653e-01, -1.842000e+02)
+(  3.850000e+08gHz, -2.645653e-01, -1.855000e+02)
+(  4.050000e+08gHz, -3.545753e-01, -1.867000e+02)
+(  4.250000e+08gHz, -3.545753e-01, -1.878000e+02)
+(  4.450000e+08gHz, -2.645653e-01, -1.890000e+02)
+(  4.650000e+08gHz, -2.645653e-01, -1.903000e+02)
+(  4.850000e+08gHz, -2.645653e-01, -1.915000e+02)
+(  5.050000e+08gHz, -2.645653e-01, -1.925000e+02)
+(  5.250000e+08gHz, -2.645653e-01, -1.935000e+02)
+(  5.450000e+08gHz, -2.645653e-01, -1.947000e+02)
+(  5.650000e+08gHz, -2.645653e-01, -1.959000e+02)
+(  5.850000e+08gHz, -2.645653e-01, -1.969000e+02)
+(  6.050000e+08gHz, -3.545753e-01, -1.978000e+02)
+(  6.250000e+08gHz, -3.545753e-01, -1.989000e+02)
+(  6.450000e+08gHz, -2.645653e-01, -2.001000e+02)
+(  6.650000e+08gHz, -3.545753e-01, -2.011000e+02)
+(  6.850000e+08gHz, -3.545753e-01, -2.021000e+02)
+(  7.050000e+08gHz, -3.545753e-01, -2.030000e+02)
+(  7.250000e+08gHz, -3.545753e-01, -2.041000e+02)
+(  7.450000e+08gHz, -3.545753e-01, -2.053000e+02)
+(  7.650000e+08gHz, -4.455279e-01, -2.063000e+02)
+(  7.850000e+08gHz, -4.455279e-01, -2.071000e+02)
+(  8.050000e+08gHz, -5.374429e-01, -2.077000e+02)
+(  8.250000e+08gHz, -5.374429e-01, -2.084000e+02)
+(  8.450000e+08gHz, -4.455279e-01, -2.095000e+02)
+(  8.650000e+08gHz, -4.455279e-01, -2.106000e+02)
+(  8.850000e+08gHz, -4.455279e-01, -2.115000e+02)
+(  9.050000e+08gHz, -4.455279e-01, -2.124000e+02)
+(  9.250000e+08gHz, -4.455279e-01, -2.136000e+02)
+(  9.450000e+08gHz, -4.455279e-01, -2.148000e+02)
+(  9.650000e+08gHz, -4.455279e-01, -2.158000e+02)
+(  9.850000e+08gHz, -3.545753e-01, -2.168000e+02)

*S12 FREQ DB PHASE
E12 12 13 FREQ {V(20,5)}=
+(  5.000000e+06gHz,  2.828609e+01,  1.478000e+02)
+(  2.500000e+07gHz,  1.988634e+01,  9.600000e+01)
+(  4.500000e+07gHz,  1.467999e+01,  7.770000e+01)
+(  6.500000e+07gHz,  1.093085e+01,  6.550000e+01)
+(  8.500000e+07gHz,  7.993474e+00,  5.660000e+01)
+(  1.050000e+08gHz,  5.483157e+00,  4.860000e+01)
+(  1.250000e+08gHz,  3.227360e+00,  4.190000e+01)
+(  1.450000e+08gHz,  1.138097e+00,  3.710000e+01)
+(  1.650000e+08gHz, -6.303410e-01,  3.320000e+01)
+(  1.850000e+08gHz, -2.158108e+00,  2.960000e+01)
+(  2.050000e+08gHz, -3.741733e+00,  2.630000e+01)
+(  2.250000e+08gHz, -5.192746e+00,  2.370000e+01)
+(  2.450000e+08gHz, -6.558043e+00,  2.220000e+01)
+(  2.650000e+08gHz, -7.744323e+00,  2.110000e+01)
+(  2.850000e+08gHz, -8.635966e+00,  2.010000e+01)
+(  3.050000e+08gHz, -9.897000e+00,  1.910000e+01)
+(  3.250000e+08gHz, -1.075204e+01,  1.900000e+01)
+(  3.450000e+08gHz, -1.170053e+01,  1.940000e+01)
+(  3.650000e+08gHz, -1.239578e+01,  1.990000e+01)
+(  3.850000e+08gHz, -1.315155e+01,  2.070000e+01)
+(  4.050000e+08gHz, -1.397940e+01,  2.180000e+01)
+(  4.250000e+08gHz, -1.489455e+01,  2.310000e+01)
+(  4.450000e+08gHz, -1.539102e+01,  2.490000e+01)
+(  4.650000e+08gHz, -1.591760e+01,  2.700000e+01)
+(  4.850000e+08gHz, -1.647817e+01,  2.890000e+01)
+(  5.050000e+08gHz, -1.647817e+01,  3.110000e+01)
+(  5.250000e+08gHz, -1.707744e+01,  3.330000e+01)
+(  5.450000e+08gHz, -1.707744e+01,  3.590000e+01)
+(  5.650000e+08gHz, -1.772113e+01,  3.840000e+01)
+(  5.850000e+08gHz, -1.772113e+01,  4.090000e+01)
+(  6.050000e+08gHz, -1.772113e+01,  4.290000e+01)
+(  6.250000e+08gHz, -1.772113e+01,  4.480000e+01)
+(  6.450000e+08gHz, -1.772113e+01,  4.740000e+01)
+(  6.650000e+08gHz, -1.772113e+01,  5.000000e+01)
+(  6.850000e+08gHz, -1.772113e+01,  5.130000e+01)
+(  7.050000e+08gHz, -1.772113e+01,  5.210000e+01)
+(  7.250000e+08gHz, -1.772113e+01,  5.380000e+01)
+(  7.450000e+08gHz, -1.772113e+01,  5.620000e+01)
+(  7.650000e+08gHz, -1.707744e+01,  5.800000e+01)
+(  7.850000e+08gHz, -1.707744e+01,  5.820000e+01)
+(  8.050000e+08gHz, -1.707744e+01,  5.830000e+01)
+(  8.250000e+08gHz, -1.707744e+01,  5.970000e+01)
+(  8.450000e+08gHz, -1.647817e+01,  6.210000e+01)
+(  8.650000e+08gHz, -1.647817e+01,  6.400000e+01)
+(  8.850000e+08gHz, -1.591760e+01,  6.340000e+01)
+(  9.050000e+08gHz, -1.591760e+01,  6.250000e+01)
+(  9.250000e+08gHz, -1.591760e+01,  6.340000e+01)
+(  9.450000e+08gHz, -1.591760e+01,  6.530000e+01)
+(  9.650000e+08gHz, -1.539102e+01,  6.640000e+01)
+(  9.850000e+08gHz, -1.397940e+01,  7.330000e+01)

*S13 FREQ DB PHASE
E13 13 14 FREQ {V(30,5)}=
+(  5.000000e+06gHz, -3.045757e+01,  5.860000e+01)
+(  2.500000e+07gHz, -2.443697e+01,  9.200000e+00)
+(  4.500000e+07gHz, -2.443697e+01, -6.700000e+00)
+(  6.500000e+07gHz, -2.602060e+01, -1.600000e+01)
+(  8.500000e+07gHz, -2.795880e+01, -2.200000e+01)
+(  1.050000e+08gHz, -2.795880e+01, -2.610000e+01)
+(  1.250000e+08gHz, -3.045757e+01, -2.750000e+01)
+(  1.450000e+08gHz, -3.397940e+01, -2.450000e+01)
+(  1.650000e+08gHz, -3.397940e+01, -1.600000e+01)
+(  1.850000e+08gHz, -4.000000e+01,  1.100000e+00)
+(  2.050000e+08gHz, -4.000000e+01,  2.800000e+01)
+(  2.250000e+08gHz, -4.000000e+01,  5.320000e+01)
+(  2.450000e+08gHz, -3.397940e+01,  6.880000e+01)
+(  2.650000e+08gHz, -3.397940e+01,  7.730000e+01)
+(  2.850000e+08gHz, -3.045757e+01,  8.140000e+01)
+(  3.050000e+08gHz, -3.045757e+01,  8.330000e+01)
+(  3.250000e+08gHz, -2.795880e+01,  8.480000e+01)
+(  3.450000e+08gHz, -2.795880e+01,  8.600000e+01)
+(  3.650000e+08gHz, -2.795880e+01,  8.660000e+01)
+(  3.850000e+08gHz, -2.602060e+01,  8.660000e+01)
+(  4.050000e+08gHz, -2.602060e+01,  8.610000e+01)
+(  4.250000e+08gHz, -2.443697e+01,  8.590000e+01)
+(  4.450000e+08gHz, -2.443697e+01,  8.620000e+01)
+(  4.650000e+08gHz, -2.309804e+01,  8.630000e+01)
+(  4.850000e+08gHz, -2.309804e+01,  8.540000e+01)
+(  5.050000e+08gHz, -2.193820e+01,  8.460000e+01)
+(  5.250000e+08gHz, -2.193820e+01,  8.460000e+01)
+(  5.450000e+08gHz, -2.193820e+01,  8.470000e+01)
+(  5.650000e+08gHz, -2.091515e+01,  8.420000e+01)
+(  5.850000e+08gHz, -2.091515e+01,  8.320000e+01)
+(  6.050000e+08gHz, -2.000000e+01,  8.250000e+01)
+(  6.250000e+08gHz, -2.000000e+01,  8.280000e+01)
+(  6.450000e+08gHz, -1.917215e+01,  8.320000e+01)
+(  6.650000e+08gHz, -1.917215e+01,  8.200000e+01)
+(  6.850000e+08gHz, -1.917215e+01,  8.040000e+01)
+(  7.050000e+08gHz, -1.841638e+01,  8.030000e+01)
+(  7.250000e+08gHz, -1.841638e+01,  8.130000e+01)
+(  7.450000e+08gHz, -1.772113e+01,  8.110000e+01)
+(  7.650000e+08gHz, -1.772113e+01,  7.930000e+01)
+(  7.850000e+08gHz, -1.772113e+01,  7.800000e+01)
+(  8.050000e+08gHz, -1.772113e+01,  7.820000e+01)
+(  8.250000e+08gHz, -1.707744e+01,  7.980000e+01)
+(  8.450000e+08gHz, -1.647817e+01,  8.020000e+01)
+(  8.650000e+08gHz, -1.647817e+01,  7.830000e+01)
+(  8.850000e+08gHz, -1.647817e+01,  7.620000e+01)
+(  9.050000e+08gHz, -1.647817e+01,  7.490000e+01)
+(  9.250000e+08gHz, -1.591760e+01,  7.610000e+01)
+(  9.450000e+08gHz, -1.591760e+01,  7.310000e+01)
+(  9.650000e+08gHz, -1.647817e+01,  7.500000e+01)
+(  9.850000e+08gHz,  5.057061e+00,  4.290000e+01)

*S14 FREQ DB PHASE
E14 14 5 FREQ {V(40,5)}=
+(  5.000000e+06gHz, -7.242435e-01, -4.630000e+01)
+(  2.500000e+07gHz, -3.223018e+00, -1.229000e+02)
+(  4.500000e+07gHz, -3.223018e+00, -1.403000e+02)
+(  6.500000e+07gHz, -2.733543e+00, -1.475000e+02)
+(  8.500000e+07gHz, -2.158108e+00, -1.521000e+02)
+(  1.050000e+08gHz, -1.830300e+00, -1.560000e+02)
+(  1.250000e+08gHz, -1.411621e+00, -1.592000e+02)
+(  1.450000e+08gHz, -1.209615e+00, -1.620000e+02)
+(  1.650000e+08gHz, -1.012200e+00, -1.644000e+02)
+(  1.850000e+08gHz, -8.191722e-01, -1.667000e+02)
+(  2.050000e+08gHz, -7.242435e-01, -1.688000e+02)
+(  2.250000e+08gHz, -6.303410e-01, -1.706000e+02)
+(  2.450000e+08gHz, -5.374429e-01, -1.723000e+02)
+(  2.650000e+08gHz, -4.455279e-01, -1.738000e+02)
+(  2.850000e+08gHz, -4.455279e-01, -1.753000e+02)
+(  3.050000e+08gHz, -3.545753e-01, -1.767000e+02)
+(  3.250000e+08gHz, -3.545753e-01, -1.779000e+02)
+(  3.450000e+08gHz, -3.545753e-01, -1.791000e+02)
+(  3.650000e+08gHz, -2.645653e-01, -1.802000e+02)
+(  3.850000e+08gHz, -2.645653e-01, -1.813000e+02)
+(  4.050000e+08gHz, -2.645653e-01, -1.824000e+02)
+(  4.250000e+08gHz, -2.645653e-01, -1.834000e+02)
+(  4.450000e+08gHz, -2.645653e-01, -1.844000e+02)
+(  4.650000e+08gHz, -2.645653e-01, -1.854000e+02)
+(  4.850000e+08gHz, -2.645653e-01, -1.864000e+02)
+(  5.050000e+08gHz, -2.645653e-01, -1.873000e+02)
+(  5.250000e+08gHz, -2.645653e-01, -1.882000e+02)
+(  5.450000e+08gHz, -1.754785e-01, -1.890000e+02)
+(  5.650000e+08gHz, -1.754785e-01, -1.899000e+02)
+(  5.850000e+08gHz, -1.754785e-01, -1.907000e+02)
+(  6.050000e+08gHz, -2.645653e-01, -1.915000e+02)
+(  6.250000e+08gHz, -2.645653e-01, -1.924000e+02)
+(  6.450000e+08gHz, -2.645653e-01, -1.932000e+02)
+(  6.650000e+08gHz, -2.645653e-01, -1.940000e+02)
+(  6.850000e+08gHz, -2.645653e-01, -1.948000e+02)
+(  7.050000e+08gHz, -2.645653e-01, -1.956000e+02)
+(  7.250000e+08gHz, -2.645653e-01, -1.963000e+02)
+(  7.450000e+08gHz, -2.645653e-01, -1.971000e+02)
+(  7.650000e+08gHz, -2.645653e-01, -1.979000e+02)
+(  7.850000e+08gHz, -2.645653e-01, -1.986000e+02)
+(  8.050000e+08gHz, -2.645653e-01, -1.994000e+02)
+(  8.250000e+08gHz, -2.645653e-01, -2.002000e+02)
+(  8.450000e+08gHz, -2.645653e-01, -2.009000e+02)
+(  8.650000e+08gHz, -3.545753e-01, -2.017000e+02)
+(  8.850000e+08gHz, -3.545753e-01, -2.024000e+02)
+(  9.050000e+08gHz, -4.455279e-01, -2.029000e+02)
+(  9.250000e+08gHz, -5.374429e-01, -2.036000e+02)
+(  9.450000e+08gHz, -7.242435e-01, -2.037000e+02)
+(  9.650000e+08gHz, -5.374429e-01, -2.020000e+02)
+(  9.850000e+08gHz,  1.143418e+01, -3.112000e+02)

*S21 FREQ DB PHASE
E21 21 22 FREQ {V(10,5)}=
+(  5.000000e+06gHz,  1.400000e+02,  8.100000e-01)
+(  2.500000e+07gHz,  1.495424e+02,  6.900000e-01)
+(  4.500000e+07gHz,  1.539794e+02,  7.100000e-01)
+(  6.500000e+07gHz,  1.569020e+02,  7.500000e-01)
+(  8.500000e+07gHz,  1.590849e+02,  7.900000e-01)
+(  1.050000e+08gHz,  1.608279e+02,  8.200000e-01)
+(  1.250000e+08gHz,  1.622789e+02,  8.500000e-01)
+(  1.450000e+08gHz,  1.635218e+02,  8.700000e-01)
+(  1.650000e+08gHz,  1.646090e+02,  9.000000e-01)
+(  1.850000e+08gHz,  1.655751e+02,  9.100000e-01)
+(  2.050000e+08gHz,  1.664444e+02,  9.200000e-01)
+(  2.250000e+08gHz,  1.672346e+02,  9.200000e-01)
+(  2.450000e+08gHz,  1.679588e+02,  9.400000e-01)
+(  2.650000e+08gHz,  1.686273e+02,  9.500000e-01)
+(  2.850000e+08gHz,  1.692480e+02,  9.500000e-01)
+(  3.050000e+08gHz,  1.698272e+02,  9.500000e-01)
+(  3.250000e+08gHz,  1.703703e+02,  9.500000e-01)
+(  3.450000e+08gHz,  1.708814e+02,  9.600000e-01)
+(  3.650000e+08gHz,  1.713640e+02,  9.700000e-01)
+(  3.850000e+08gHz,  1.718213e+02,  9.600000e-01)
+(  4.050000e+08gHz,  1.722557e+02,  9.600000e-01)
+(  4.250000e+08gHz,  1.726694e+02,  9.600000e-01)
+(  4.450000e+08gHz,  1.730643e+02,  9.700000e-01)
+(  4.650000e+08gHz,  1.734420e+02,  9.700000e-01)
+(  4.850000e+08gHz,  1.738039e+02,  9.700000e-01)
+(  5.050000e+08gHz,  1.741514e+02,  9.600000e-01)
+(  5.250000e+08gHz,  1.744855e+02,  9.700000e-01)
+(  5.450000e+08gHz,  1.748073e+02,  9.700000e-01)
+(  5.650000e+08gHz,  1.751175e+02,  9.700000e-01)
+(  5.850000e+08gHz,  1.754170e+02,  9.600000e-01)
+(  6.050000e+08gHz,  1.757066e+02,  9.600000e-01)
+(  6.250000e+08gHz,  1.759868e+02,  9.600000e-01)
+(  6.450000e+08gHz,  1.762583e+02,  9.700000e-01)
+(  6.650000e+08gHz,  1.765215e+02,  9.600000e-01)
+(  6.850000e+08gHz,  1.767770e+02,  9.600000e-01)
+(  7.050000e+08gHz,  1.770252e+02,  9.600000e-01)
+(  7.250000e+08gHz,  1.772665e+02,  9.600000e-01)
+(  7.450000e+08gHz,  1.775012e+02,  9.600000e-01)
+(  7.650000e+08gHz,  1.777298e+02,  9.500000e-01)
+(  7.850000e+08gHz,  1.779525e+02,  9.400000e-01)
+(  8.050000e+08gHz,  1.781697e+02,  9.400000e-01)
+(  8.250000e+08gHz,  1.783816e+02,  9.500000e-01)
+(  8.450000e+08gHz,  1.785884e+02,  9.500000e-01)
+(  8.650000e+08gHz,  1.787904e+02,  9.500000e-01)
+(  8.850000e+08gHz,  1.789878e+02,  9.500000e-01)
+(  9.050000e+08gHz,  1.791808e+02,  9.500000e-01)
+(  9.250000e+08gHz,  1.793697e+02,  9.500000e-01)
+(  9.450000e+08gHz,  1.795545e+02,  9.500000e-01)
+(  9.650000e+08gHz,  1.797354e+02,  9.500000e-01)
+(  9.850000e+08gHz,  1.799127e+02,  9.500000e-01)

*S22 FREQ DB PHASE
E22 22 23 FREQ {V(20,5)}=
+(  5.000000e+06gHz,          -Inf,  1.977000e+01)
+(  2.500000e+07gHz,          -Inf,  8.280000e+00)
+(  4.500000e+07gHz,          -Inf,  4.820000e+00)
+(  6.500000e+07gHz,          -Inf,  3.210000e+00)
+(  8.500000e+07gHz,          -Inf,  2.330000e+00)
+(  1.050000e+08gHz,          -Inf,  1.760000e+00)
+(  1.250000e+08gHz,          -Inf,  1.360000e+00)
+(  1.450000e+08gHz,          -Inf,  1.080000e+00)
+(  1.650000e+08gHz,          -Inf,  8.900000e-01)
+(  1.850000e+08gHz,          -Inf,  7.400000e-01)
+(  2.050000e+08gHz,          -Inf,  6.300000e-01)
+(  2.250000e+08gHz,          -Inf,  5.300000e-01)
+(  2.450000e+08gHz,          -Inf,  4.600000e-01)
+(  2.650000e+08gHz,          -Inf,  4.000000e-01)
+(  2.850000e+08gHz,          -Inf,  3.600000e-01)
+(  3.050000e+08gHz,  4.508613e+01,  3.100000e-01)
+(  3.250000e+08gHz,  4.501815e+01,  2.800000e-01)
+(  3.450000e+08gHz,  4.495456e+01,  2.500000e-01)
+(  3.650000e+08gHz,  4.488554e+01,  2.300000e-01)
+(  3.850000e+08gHz,  4.481598e+01,  2.100000e-01)
+(  4.050000e+08gHz,  4.476092e+01,  2.000000e-01)
+(  4.250000e+08gHz,  4.470552e+01,  1.800000e-01)
+(  4.450000e+08gHz,  4.463958e+01,  1.700000e-01)
+(  4.650000e+08gHz,  4.457827e+01,  1.600000e-01)
+(  4.850000e+08gHz,  4.452168e+01,  1.500000e-01)
+(  5.050000e+08gHz,  4.446992e+01,  1.500000e-01)
+(  5.250000e+08gHz,  4.441262e+01,  1.400000e-01)
+(  5.450000e+08gHz,  4.434968e+01,  1.400000e-01)
+(  5.650000e+08gHz,  4.428628e+01,  1.300000e-01)
+(  5.850000e+08gHz,  4.423842e+01,  1.300000e-01)
+(  6.050000e+08gHz,  4.418494e+01,  1.300000e-01)
+(  6.250000e+08gHz,  4.412572e+01,  1.300000e-01)
+(  6.450000e+08gHz,  4.406066e+01,  1.300000e-01)
+(  6.650000e+08gHz,  4.400606e+01,  1.300000e-01)
+(  6.850000e+08gHz,  4.395663e+01,  1.300000e-01)
+(  7.050000e+08gHz,  4.390138e+01,  1.300000e-01)
+(  7.250000e+08gHz,  4.384019e+01,  1.300000e-01)
+(  7.450000e+08gHz,  4.377295e+01,  1.400000e-01)
+(  7.650000e+08gHz,  4.371651e+01,  1.400000e-01)
+(  7.850000e+08gHz,  4.367678e+01,  1.400000e-01)
+(  8.050000e+08gHz,  4.364258e+01,  1.400000e-01)
+(  8.250000e+08gHz,  4.359678e+01,  1.400000e-01)
+(  8.450000e+08gHz,  4.353340e+01,  1.500000e-01)
+(  8.650000e+08gHz,  4.347538e+01,  1.600000e-01)
+(  8.850000e+08gHz,  4.342282e+01,  1.600000e-01)
+(  9.050000e+08gHz,  4.336405e+01,  1.600000e-01)
+(  9.250000e+08gHz,  4.329300e+01,  1.600000e-01)
+(  9.450000e+08gHz,  4.322137e+01,  1.700000e-01)
+(  9.650000e+08gHz,  4.316725e+01,  1.700000e-01)
+(  9.850000e+08gHz,  4.310672e+01,  1.900000e-01)

*S23 FREQ DB PHASE
E23 23 24 FREQ {V(30,5)}=
+(  5.000000e+06gHz,  4.205553e+01,  5.000000e-02)
+(  2.500000e+07gHz,  3.912337e+01,  6.000000e-02)
+(  4.500000e+07gHz,  3.741978e+01,  6.000000e-02)
+(  6.500000e+07gHz,  3.600059e+01,  5.000000e-02)
+(  8.500000e+07gHz,  3.472793e+01,  4.000000e-02)
+(  1.050000e+08gHz,  3.338634e+01,  4.000000e-02)
+(  1.250000e+08gHz,  3.217052e+01,  3.000000e-02)
+(  1.450000e+08gHz,  3.115014e+01,  2.000000e-02)
+(  1.650000e+08gHz,  3.018405e+01,  2.000000e-02)
+(  1.850000e+08gHz,  2.915764e+01,  1.000000e-02)
+(  2.050000e+08gHz,  2.816480e+01,  1.000000e-02)
+(  2.250000e+08gHz,  2.734712e+01,  1.000000e-02)
+(  2.450000e+08gHz,  2.680888e+01,  2.000000e-02)
+(  2.650000e+08gHz,  2.640293e+01,  2.000000e-02)
+(  2.850000e+08gHz,  2.593330e+01,  3.000000e-02)
+(  3.050000e+08gHz,  2.557507e+01,  3.000000e-02)
+(  3.250000e+08gHz,  2.562067e+01,  4.000000e-02)
+(  3.450000e+08gHz,  2.580069e+01,  4.000000e-02)
+(  3.650000e+08gHz,  2.606392e+01,  5.000000e-02)
+(  3.850000e+08gHz,  2.644439e+01,  5.000000e-02)
+(  4.050000e+08gHz,  2.688785e+01,  6.000000e-02)
+(  4.250000e+08gHz,  2.742136e+01,  6.000000e-02)
+(  4.450000e+08gHz,  2.806241e+01,  6.000000e-02)
+(  4.650000e+08gHz,  2.878665e+01,  7.000000e-02)
+(  4.850000e+08gHz,  2.942583e+01,  7.000000e-02)
+(  5.050000e+08gHz,  3.002119e+01,  8.000000e-02)
+(  5.250000e+08gHz,  3.065509e+01,  8.000000e-02)
+(  5.450000e+08gHz,  3.126962e+01,  9.000000e-02)
+(  5.650000e+08gHz,  3.186572e+01,  9.000000e-02)
+(  5.850000e+08gHz,  3.234001e+01,  9.000000e-02)
+(  6.050000e+08gHz,  3.272976e+01,  1.000000e-01)
+(  6.250000e+08gHz,  3.314112e+01,  1.000000e-01)
+(  6.450000e+08gHz,  3.366094e+01,  1.100000e-01)
+(  6.650000e+08gHz,  3.406583e+01,  1.100000e-01)
+(  6.850000e+08gHz,  3.423614e+01,  1.100000e-01)
+(  7.050000e+08gHz,  3.440319e+01,  1.200000e-01)
+(  7.250000e+08gHz,  3.469600e+01,  1.200000e-01)
+(  7.450000e+08gHz,  3.507166e+01,  1.300000e-01)
+(  7.650000e+08gHz,  3.528352e+01,  1.300000e-01)
+(  7.850000e+08gHz,  3.528352e+01,  1.300000e-01)
+(  8.050000e+08gHz,  3.535795e+01,  1.300000e-01)
+(  8.250000e+08gHz,  3.559193e+01,  1.400000e-01)
+(  8.450000e+08gHz,  3.594535e+01,  1.500000e-01)
+(  8.650000e+08gHz,  3.612360e+01,  1.500000e-01)
+(  8.850000e+08gHz,  3.600059e+01,  1.500000e-01)
+(  9.050000e+08gHz,  3.591760e+01,  1.500000e-01)
+(  9.250000e+08gHz,  3.609641e+01,  1.600000e-01)
+(  9.450000e+08gHz,  3.636452e+01,  1.600000e-01)
+(  9.650000e+08gHz,  3.643027e+01,  1.400000e-01)
+(  9.850000e+08gHz,  3.702517e+01,  1.760000e+00)

*S24 FREQ DB PHASE
E24 24 5 FREQ {V(40,5)}=
+(  5.000000e+06gHz,  3.152683e+01,  8.100000e-01)
+(  2.500000e+07gHz,  1.204120e+01,  6.800000e-01)
+(  4.500000e+07gHz,          -Inf,  7.000000e-01)
+(  6.500000e+07gHz,          -Inf,  7.400000e-01)
+(  8.500000e+07gHz,          -Inf,  7.900000e-01)
+(  1.050000e+08gHz,          -Inf,  8.200000e-01)
+(  1.250000e+08gHz,          -Inf,  8.500000e-01)
+(  1.450000e+08gHz,          -Inf,  8.800000e-01)
+(  1.650000e+08gHz,          -Inf,  9.000000e-01)
+(  1.850000e+08gHz,  1.702517e+01,  9.100000e-01)
+(  2.050000e+08gHz,  3.090614e+01,  9.200000e-01)
+(  2.250000e+08gHz,  3.526856e+01,  9.300000e-01)
+(  2.450000e+08gHz,  3.708612e+01,  9.400000e-01)
+(  2.650000e+08gHz,  3.790845e+01,  9.500000e-01)
+(  2.850000e+08gHz,  3.826568e+01,  9.600000e-01)
+(  3.050000e+08gHz,  3.845451e+01,  9.600000e-01)
+(  3.250000e+08gHz,  3.859859e+01,  9.600000e-01)
+(  3.450000e+08gHz,  3.871015e+01,  9.700000e-01)
+(  3.650000e+08gHz,  3.876038e+01,  9.700000e-01)
+(  3.850000e+08gHz,  3.874032e+01,  9.700000e-01)
+(  4.050000e+08gHz,  3.868997e+01,  9.700000e-01)
+(  4.250000e+08gHz,  3.867986e+01,  9.700000e-01)
+(  4.450000e+08gHz,  3.872022e+01,  9.700000e-01)
+(  4.650000e+08gHz,  3.871015e+01,  9.700000e-01)
+(  4.850000e+08gHz,  3.860879e+01,  9.700000e-01)
+(  5.050000e+08gHz,  3.854741e+01,  9.700000e-01)
+(  5.250000e+08gHz,  3.855767e+01,  9.700000e-01)
+(  5.450000e+08gHz,  3.855767e+01,  9.800000e-01)
+(  5.650000e+08gHz,  3.848559e+01,  9.800000e-01)
+(  5.850000e+08gHz,  3.838156e+01,  9.800000e-01)
+(  6.050000e+08gHz,  3.832908e+01,  9.700000e-01)
+(  6.250000e+08gHz,  3.838156e+01,  9.700000e-01)
+(  6.450000e+08gHz,  3.839202e+01,  9.700000e-01)
+(  6.650000e+08gHz,  3.822315e+01,  9.700000e-01)
+(  6.850000e+08gHz,  3.808349e+01,  9.700000e-01)
+(  7.050000e+08gHz,  3.811592e+01,  9.700000e-01)
+(  7.250000e+08gHz,  3.821249e+01,  9.700000e-01)
+(  7.450000e+08gHz,  3.813747e+01,  9.700000e-01)
+(  7.650000e+08gHz,  3.794154e+01,  9.700000e-01)
+(  7.850000e+08gHz,  3.783075e+01,  9.700000e-01)
+(  8.050000e+08gHz,  3.790845e+01,  9.700000e-01)
+(  8.250000e+08gHz,  3.807265e+01,  9.700000e-01)
+(  8.450000e+08gHz,  3.805094e+01,  9.600000e-01)
+(  8.650000e+08gHz,  3.779723e+01,  9.600000e-01)
+(  8.850000e+08gHz,  3.760484e+01,  9.600000e-01)
+(  9.050000e+08gHz,  3.748964e+01,  9.500000e-01)
+(  9.250000e+08gHz,  3.767323e+01,  9.400000e-01)
+(  9.450000e+08gHz,  3.740808e+01,  9.300000e-01)
+(  9.650000e+08gHz,  3.692674e+01,  9.100000e-01)
+(  9.850000e+08gHz,  3.256778e+01,  3.670000e+00)

*S31 FREQ DB PHASE
E31 31 32 FREQ {V(10,5)}=
+(  5.000000e+06gHz,          -Inf,  1.499964e+07)
+(  2.500000e+07gHz,          -Inf,  3.499928e+07)
+(  4.500000e+07gHz,          -Inf,  5.499892e+07)
+(  6.500000e+07gHz,          -Inf,  7.499856e+07)
+(  8.500000e+07gHz,          -Inf,  9.499820e+07)
+(  1.050000e+08gHz,          -Inf,  1.149978e+08)
+(  1.250000e+08gHz,          -Inf,  1.349975e+08)
+(  1.450000e+08gHz,          -Inf,  1.549971e+08)
+(  1.650000e+08gHz,          -Inf,  1.749968e+08)
+(  1.850000e+08gHz,          -Inf,  1.949964e+08)
+(  2.050000e+08gHz,          -Inf,  2.149960e+08)
+(  2.250000e+08gHz,          -Inf,  2.349957e+08)
+(  2.450000e+08gHz,          -Inf,  2.549953e+08)
+(  2.650000e+08gHz,          -Inf,  2.749950e+08)
+(  2.850000e+08gHz,          -Inf,  2.949946e+08)
+(  3.050000e+08gHz,          -Inf,  3.149942e+08)
+(  3.250000e+08gHz,          -Inf,  3.349939e+08)
+(  3.450000e+08gHz,          -Inf,  3.549935e+08)
+(  3.650000e+08gHz,  4.508129e+01,  3.749932e+08)
+(  3.850000e+08gHz,  4.502790e+01,  3.949928e+08)
+(  4.050000e+08gHz,  4.497417e+01,  4.149924e+08)
+(  4.250000e+08gHz,  4.492505e+01,  4.349921e+08)
+(  4.450000e+08gHz,  4.487564e+01,  4.549917e+08)
+(  4.650000e+08gHz,  4.482595e+01,  4.749914e+08)
+(  4.850000e+08gHz,  4.478098e+01,  4.949910e+08)
+(  5.050000e+08gHz,  4.473578e+01,  5.149906e+08)
+(  5.250000e+08gHz,  4.469035e+01,  5.349903e+08)
+(  5.450000e+08gHz,  4.464976e+01,  5.549899e+08)
+(  5.650000e+08gHz,  4.460387e+01,  5.749896e+08)
+(  5.850000e+08gHz,  4.456287e+01,  5.949892e+08)
+(  6.050000e+08gHz,  4.452168e+01,  6.149888e+08)
+(  6.250000e+08gHz,  4.447511e+01,  6.349885e+08)
+(  6.450000e+08gHz,  4.443350e+01,  6.549881e+08)
+(  6.650000e+08gHz,  4.439169e+01,  6.749878e+08)
+(  6.850000e+08gHz,  4.434968e+01,  6.949874e+08)
+(  7.050000e+08gHz,  4.430746e+01,  7.149870e+08)
+(  7.250000e+08gHz,  4.427036e+01,  7.349867e+08)
+(  7.450000e+08gHz,  4.422775e+01,  7.549863e+08)
+(  7.650000e+08gHz,  4.418494e+01,  7.749860e+08)
+(  7.850000e+08gHz,  4.414730e+01,  7.949856e+08)
+(  8.050000e+08gHz,  4.410409e+01,  8.149852e+08)
+(  8.250000e+08gHz,  4.406066e+01,  8.349849e+08)
+(  8.450000e+08gHz,  4.402248e+01,  8.549845e+08)
+(  8.650000e+08gHz,  4.397864e+01,  8.749842e+08)
+(  8.850000e+08gHz,  4.394009e+01,  8.949838e+08)
+(  9.050000e+08gHz,  4.391246e+01,  9.149834e+08)
+(  9.250000e+08gHz,  4.387362e+01,  9.349831e+08)
+(  9.450000e+08gHz,  4.385692e+01,  9.549827e+08)
+(  9.650000e+08gHz,  4.404977e+01,  9.749824e+08)
+(  9.850000e+08gHz,  3.366094e+01,  9.949820e+08)

*S32 FREQ DB PHASE
E32 32 33 FREQ {V(20,5)}=
+(  5.000000e+06gHz, -2.498775e+00, -1.019000e+02)
+(  2.500000e+07gHz, -3.223018e+00, -1.366000e+02)
+(  4.500000e+07gHz, -2.853350e+00, -1.471000e+02)
+(  6.500000e+07gHz, -2.383728e+00, -1.521000e+02)
+(  8.500000e+07gHz, -1.938200e+00, -1.563000e+02)
+(  1.050000e+08gHz, -1.618438e+00, -1.603000e+02)
+(  1.250000e+08gHz, -1.411621e+00, -1.633000e+02)
+(  1.450000e+08gHz, -1.110347e+00, -1.655000e+02)
+(  1.650000e+08gHz, -9.151498e-01, -1.679000e+02)
+(  1.850000e+08gHz, -8.191722e-01, -1.704000e+02)
+(  2.050000e+08gHz, -7.242435e-01, -1.725000e+02)
+(  2.250000e+08gHz, -6.303410e-01, -1.743000e+02)
+(  2.450000e+08gHz, -5.374429e-01, -1.759000e+02)
+(  2.650000e+08gHz, -4.455279e-01, -1.777000e+02)
+(  2.850000e+08gHz, -4.455279e-01, -1.793000e+02)
+(  3.050000e+08gHz, -4.455279e-01, -1.808000e+02)
+(  3.250000e+08gHz, -4.455279e-01, -1.821000e+02)
+(  3.450000e+08gHz, -3.545753e-01, -1.835000e+02)
+(  3.650000e+08gHz, -2.645653e-01, -1.849000e+02)
+(  3.850000e+08gHz, -3.545753e-01, -1.862000e+02)
+(  4.050000e+08gHz, -3.545753e-01, -1.873000e+02)
+(  4.250000e+08gHz, -2.645653e-01, -1.884000e+02)
+(  4.450000e+08gHz, -2.645653e-01, -1.897000e+02)
+(  4.650000e+08gHz, -2.645653e-01, -1.909000e+02)
+(  4.850000e+08gHz, -2.645653e-01, -1.920000e+02)
+(  5.050000e+08gHz, -3.545753e-01, -1.929000e+02)
+(  5.250000e+08gHz, -2.645653e-01, -1.941000e+02)
+(  5.450000e+08gHz, -2.645653e-01, -1.953000e+02)
+(  5.650000e+08gHz, -2.645653e-01, -1.964000e+02)
+(  5.850000e+08gHz, -3.545753e-01, -1.974000e+02)
+(  6.050000e+08gHz, -3.545753e-01, -1.984000e+02)
+(  6.250000e+08gHz, -2.645653e-01, -1.995000e+02)
+(  6.450000e+08gHz, -2.645653e-01, -2.006000e+02)
+(  6.650000e+08gHz, -3.545753e-01, -2.016000e+02)
+(  6.850000e+08gHz, -3.545753e-01, -2.025000e+02)
+(  7.050000e+08gHz, -3.545753e-01, -2.035000e+02)
+(  7.250000e+08gHz, -3.545753e-01, -2.047000e+02)
+(  7.450000e+08gHz, -4.455279e-01, -2.059000e+02)
+(  7.650000e+08gHz, -4.455279e-01, -2.067000e+02)
+(  7.850000e+08gHz, -5.374429e-01, -2.074000e+02)
+(  8.050000e+08gHz, -5.374429e-01, -2.080000e+02)
+(  8.250000e+08gHz, -4.455279e-01, -2.089000e+02)
+(  8.450000e+08gHz, -4.455279e-01, -2.101000e+02)
+(  8.650000e+08gHz, -4.455279e-01, -2.110000e+02)
+(  8.850000e+08gHz, -4.455279e-01, -2.119000e+02)
+(  9.050000e+08gHz, -4.455279e-01, -2.130000e+02)
+(  9.250000e+08gHz, -4.455279e-01, -2.142000e+02)
+(  9.450000e+08gHz, -4.455279e-01, -2.153000e+02)
+(  9.650000e+08gHz, -4.455279e-01, -2.163000e+02)
+(  9.850000e+08gHz, -4.455279e-01, -2.172000e+02)

*S33 FREQ DB PHASE
E33 33 34 FREQ {V(30,5)}=
+(  5.000000e+06gHz,  2.366540e+01,  1.129000e+02)
+(  2.500000e+07gHz,  1.700067e+01,  8.560000e+01)
+(  4.500000e+07gHz,  1.268955e+01,  7.110000e+01)
+(  6.500000e+07gHz,  9.366947e+00,  6.080000e+01)
+(  8.500000e+07gHz,  6.689075e+00,  5.240000e+01)
+(  1.050000e+08gHz,  4.349679e+00,  4.500000e+01)
+(  1.250000e+08gHz,  2.144199e+00,  3.930000e+01)
+(  1.450000e+08gHz,  2.567445e-01,  3.510000e+01)
+(  1.650000e+08gHz, -1.411621e+00,  3.140000e+01)
+(  1.850000e+08gHz, -2.974833e+00,  2.790000e+01)
+(  2.050000e+08gHz, -4.436975e+00,  2.490000e+01)
+(  2.250000e+08gHz, -5.848596e+00,  2.290000e+01)
+(  2.450000e+08gHz, -7.130946e+00,  2.160000e+01)
+(  2.650000e+08gHz, -8.178708e+00,  2.060000e+01)
+(  2.850000e+08gHz, -9.370422e+00,  1.950000e+01)
+(  3.050000e+08gHz, -1.017277e+01,  1.890000e+01)
+(  3.250000e+08gHz, -1.137272e+01,  1.910000e+01)
+(  3.450000e+08gHz, -1.204120e+01,  1.970000e+01)
+(  3.650000e+08gHz, -1.276544e+01,  2.030000e+01)
+(  3.850000e+08gHz, -1.355561e+01,  2.130000e+01)
+(  4.050000e+08gHz, -1.442493e+01,  2.240000e+01)
+(  4.250000e+08gHz, -1.489455e+01,  2.380000e+01)
+(  4.450000e+08gHz, -1.539102e+01,  2.580000e+01)
+(  4.650000e+08gHz, -1.591760e+01,  2.800000e+01)
+(  4.850000e+08gHz, -1.647817e+01,  3.010000e+01)
+(  5.050000e+08gHz, -1.707744e+01,  3.220000e+01)
+(  5.250000e+08gHz, -1.707744e+01,  3.460000e+01)
+(  5.450000e+08gHz, -1.707744e+01,  3.710000e+01)
+(  5.650000e+08gHz, -1.772113e+01,  3.970000e+01)
+(  5.850000e+08gHz, -1.772113e+01,  4.190000e+01)
+(  6.050000e+08gHz, -1.772113e+01,  4.380000e+01)
+(  6.250000e+08gHz, -1.772113e+01,  4.610000e+01)
+(  6.450000e+08gHz, -1.772113e+01,  4.880000e+01)
+(  6.650000e+08gHz, -1.772113e+01,  5.090000e+01)
+(  6.850000e+08gHz, -1.772113e+01,  5.160000e+01)
+(  7.050000e+08gHz, -1.772113e+01,  5.290000e+01)
+(  7.250000e+08gHz, -1.772113e+01,  5.490000e+01)
+(  7.450000e+08gHz, -1.707744e+01,  5.720000e+01)
+(  7.650000e+08gHz, -1.707744e+01,  5.810000e+01)
+(  7.850000e+08gHz, -1.707744e+01,  5.810000e+01)
+(  8.050000e+08gHz, -1.707744e+01,  5.880000e+01)
+(  8.250000e+08gHz, -1.707744e+01,  6.080000e+01)
+(  8.450000e+08gHz, -1.647817e+01,  6.340000e+01)
+(  8.650000e+08gHz, -1.591760e+01,  6.400000e+01)
+(  8.850000e+08gHz, -1.591760e+01,  6.280000e+01)
+(  9.050000e+08gHz, -1.591760e+01,  6.280000e+01)
+(  9.250000e+08gHz, -1.591760e+01,  6.430000e+01)
+(  9.450000e+08gHz, -1.539102e+01,  6.600000e+01)
+(  9.650000e+08gHz, -1.489455e+01,  6.620000e+01)
+(  9.850000e+08gHz, -1.442493e+01,  6.920000e+01)

*S34 FREQ DB PHASE
E34 34 5 FREQ {V(40,5)}=
+(  5.000000e+06gHz, -2.443697e+01,  2.440000e+01)
+(  2.500000e+07gHz, -2.443697e+01, -2.000000e-01)
+(  4.500000e+07gHz, -2.602060e+01, -1.190000e+01)
+(  6.500000e+07gHz, -2.602060e+01, -1.930000e+01)
+(  8.500000e+07gHz, -2.795880e+01, -2.430000e+01)
+(  1.050000e+08gHz, -3.045757e+01, -2.730000e+01)
+(  1.250000e+08gHz, -3.045757e+01, -2.660000e+01)
+(  1.450000e+08gHz, -3.397940e+01, -2.120000e+01)
+(  1.650000e+08gHz, -4.000000e+01, -8.800000e+00)
+(  1.850000e+08gHz, -4.000000e+01,  1.380000e+01)
+(  2.050000e+08gHz, -4.000000e+01,  4.170000e+01)
+(  2.250000e+08gHz, -4.000000e+01,  6.220000e+01)
+(  2.450000e+08gHz, -3.397940e+01,  7.370000e+01)
+(  2.650000e+08gHz, -3.397940e+01,  7.970000e+01)
+(  2.850000e+08gHz, -3.045757e+01,  8.250000e+01)
+(  3.050000e+08gHz, -3.045757e+01,  8.410000e+01)
+(  3.250000e+08gHz, -2.795880e+01,  8.550000e+01)
+(  3.450000e+08gHz, -2.795880e+01,  8.630000e+01)
+(  3.650000e+08gHz, -2.602060e+01,  8.670000e+01)
+(  3.850000e+08gHz, -2.602060e+01,  8.630000e+01)
+(  4.050000e+08gHz, -2.443697e+01,  8.590000e+01)