Version 4
SHEET 1 2104 1220
WIRE 208 176 64 176
WIRE 320 176 288 176
WIRE 512 224 512 192
WIRE 848 224 848 192
WIRE 176 272 176 256
WIRE 64 288 64 176
WIRE 144 288 64 288
WIRE 320 304 320 176
WIRE 320 304 208 304
WIRE 368 304 320 304
WIRE 400 304 368 304
WIRE -64 320 -112 320
WIRE 144 320 16 320
WIRE 512 336 512 304
WIRE 848 336 848 304
WIRE 64 352 64 288
WIRE 368 368 368 304
WIRE 64 464 64 432
WIRE 176 464 176 336
WIRE 176 464 64 464
WIRE 368 464 368 448
WIRE 368 464 176 464
WIRE 176 480 176 464
FLAG 848 336 0
FLAG 176 256 vdd
FLAG 848 192 vdd
FLAG 512 336 0
FLAG 512 192 in
FLAG -112 320 in
IOPIN -112 320 In
FLAG 400 304 out1
IOPIN 400 304 Out
FLAG 176 480 0
SYMBOL voltage 848 208 R0
WINDOW 3 15 109 Left 2
WINDOW 123 0 0 Left 2
WINDOW 39 0 0 Left 2
SYMATTR Value 9
SYMATTR InstName V1
SYMBOL res 304 160 R90
WINDOW 0 0 56 VBottom 2
WINDOW 3 32 56 VTop 2
SYMATTR InstName R2
SYMATTR Value 22k
SYMBOL res 48 448 M180
WINDOW 0 36 76 Left 2
WINDOW 3 36 40 Left 2
SYMATTR InstName R3
SYMATTR Value 22k
SYMBOL res 32 336 M270
WINDOW 0 32 56 VTop 2
WINDOW 3 0 56 VBottom 2
SYMATTR InstName R1
SYMATTR Value 10k
SYMBOL res 352 352 R0
SYMATTR InstName RLOAD
SYMATTR Value 10k
SYMBOL voltage 512 208 R0
WINDOW 3 15 113 Left 2
WINDOW 123 0 0 Left 2
WINDOW 39 0 0 Left 2
SYMATTR Value PWL(0 1 1u 2 20u 2 21u 1)
SYMATTR InstName V2
SYMBOL Robertugo\\opamp5 176 240 R0
SYMATTR InstName U1
SYMATTR SpiceModel LM224/NS
TEXT -168 488 Left 2 !.tran 0 30u 0 .1u
TEXT -184 144 Left 2 ;LM224, NATIONAL SEMICONDUCTOR \nSymbol  opamp2.asy
