Version 4
SHEET 1 928 680
WIRE -32 192 -32 64
WIRE -32 320 -32 272
WIRE -32 400 -32 320
WIRE 0 320 -32 320
WIRE 0 336 0 320
WIRE 96 272 96 128
WIRE 144 128 96 128
WIRE 192 64 -32 64
WIRE 192 176 192 160
WIRE 192 272 96 272
WIRE 192 272 192 256
WIRE 192 288 192 272
WIRE 192 400 -32 400
WIRE 192 400 192 368
WIRE 208 256 192 256
WIRE 304 224 304 128
WIRE 304 320 304 224
WIRE 304 400 192 400
WIRE 336 224 304 224
WIRE 336 256 288 256
WIRE 368 64 192 64
WIRE 368 208 368 64
WIRE 368 400 304 400
WIRE 368 400 368 272
WIRE 448 128 304 128
WIRE 448 144 448 128
WIRE 448 240 400 240
WIRE 448 240 448 224
WIRE 496 240 448 240
WIRE 496 240 496 128
WIRE 496 304 496 240
WIRE 496 400 368 400
WIRE 496 400 496 384
FLAG 0 336 0
FLAG 496 128 Out
IOPIN 496 128 Out
SYMBOL njf 144 64 R0
WINDOW 0 63 20 Left 0
WINDOW 3 19 48 Left 0
SYMATTR InstName J1
SYMATTR Value 2N3819
SYMBOL res 176 160 R0
WINDOW 0 -69 48 Left 0
WINDOW 3 -68 77 Left 0
SYMATTR InstName R1
SYMATTR Value 1meg
SYMBOL voltage -32 176 R0
WINDOW 3 13 119 Left 0
WINDOW 123 0 0 Left 0
WINDOW 39 0 0 Left 0
SYMATTR Value PWL(0 0 1 30)
SYMATTR InstName V1
SYMBOL res 176 272 R0
WINDOW 0 -68 59 Left 0
WINDOW 3 -71 86 Left 0
SYMATTR InstName R2
SYMATTR Value 1meg
SYMBOL res 464 240 R180
WINDOW 0 36 76 Left 0
WINDOW 3 25 48 Left 0
SYMATTR InstName R3
SYMATTR Value 220k
SYMBOL res 288 416 M180
WINDOW 0 -39 62 Left 0
WINDOW 3 -46 31 Left 0
SYMATTR InstName R4
SYMATTR Value 330k
SYMBOL res 304 272 M270
WINDOW 0 32 56 VTop 0
WINDOW 3 -5 68 VBottom 0
SYMATTR InstName R5
SYMATTR Value 220k
SYMBOL res 480 288 R0
WINDOW 0 -71 35 Left 0
WINDOW 3 -91 69 Left 0
SYMATTR InstName Rload
SYMATTR Value 100meg
SYMBOL Var\\OPAMP5 368 176 R0
WINDOW 0 -28 64 Left 0
WINDOW 38 5 103 Left 0
SYMATTR InstName U1
SYMATTR SpiceModel LM358/NS
TEXT -2 362 Left 0 !.tran 1
TEXT -64 48 Left 0 ;.step param Rload 700 5000 500
TEXT 296 48 Left 0 ;.param rload = 10meg
