Version 4
SHEET 1 2104 1220
WIRE -48 320 -96 320
WIRE 64 288 64 208
WIRE 64 352 64 288
WIRE 64 464 64 432
WIRE 64 496 64 464
WIRE 64 512 64 496
WIRE 144 288 64 288
WIRE 144 320 32 320
WIRE 176 272 176 144
WIRE 176 464 64 464
WIRE 176 464 176 336
WIRE 208 208 64 208
WIRE 368 208 288 208
WIRE 368 304 208 304
WIRE 368 304 368 208
WIRE 368 368 368 304
WIRE 368 464 176 464
WIRE 368 464 368 448
WIRE 400 304 368 304
WIRE 576 112 576 80
WIRE 576 240 576 192
WIRE 576 368 576 336
WIRE 576 496 576 448
FLAG 576 240 0
FLAG 176 144 vdd
FLAG 64 496 0
FLAG 576 80 vdd
FLAG 576 496 0
FLAG 576 336 in
FLAG -96 320 in
IOPIN -96 320 In
FLAG 400 304 out
IOPIN 400 304 Out
SYMBOL voltage 576 96 R0
WINDOW 3 15 109 Left 0
WINDOW 123 0 0 Left 0
WINDOW 39 0 0 Left 0
SYMATTR Value PWL(0 0 1 30)
SYMATTR InstName V1
SYMBOL res 304 192 R90
WINDOW 0 0 56 VBottom 0
WINDOW 3 32 56 VTop 0
SYMATTR InstName R2
SYMATTR Value 220k
SYMBOL res 48 448 M180
WINDOW 0 36 76 Left 0
WINDOW 3 36 40 Left 0
SYMATTR InstName R3
SYMATTR Value 470k
SYMBOL res 48 336 M270
WINDOW 0 32 56 VTop 0
WINDOW 3 0 56 VBottom 0
SYMATTR InstName R1
SYMATTR Value 150k
SYMBOL res 352 352 R0
SYMATTR InstName R4
SYMATTR Value {rload}
SYMBOL bv 576 352 R0
SYMATTR InstName B2
SYMATTR Value V=limit(0, (0.2*V(vdd)), 2)
SYMBOL Var\\OPAMP5 176 240 R0
SYMATTR InstName U_358NS_BV
SYMATTR SpiceModel LM358/NS_BV
TEXT -122 482 Left 0 !.tran 0 1 0 1m
TEXT -168 416 Left 0 ;.param rload = 1k
TEXT -152 184 Left 0 ;LM358/NS_BV corrected Iq\nLM358/NS  original
TEXT -176 -408 Left 0 ;QUIESCENT CURRENT TEST WITH MODIFIED MODEL OF  LM358/NS Helmut Sennewald    8/5/2004\n \nNone of the tested LM358 models has correct quiescent current. The NS model fail totally regarding quiescent\ncurrent for Vdd < 1V.It also has negative supply current for Vdd < 10V.\nI replaced one line in the model to solve the problem for Vdd<1V and  I added one line to correct the quiescen\nt current over the whole range.\n \n.SUBCKT LM358....\n....\n*V2 99 8 1.63\nB2 99 8 V=limit(0, V(99,50), 1.63)\nBIQ 99 50 I=limit(0.1005m, V(99,50)*0.15m , 0.5m)\n....\n.ENDS\n \nAdditional hint for the circuit design:\nChoose  R1 = R2*R3/(R2+R3)  for best suppression of offset voltage  \ncaused by the input bias currents..
TEXT -168 448 Left 0 !.param rload = 1G
TEXT 624 64 Left 0 ;RAMPUP from  0->30V in 1sec
TEXT 648 336 Left 0 ;Limit V(in) to 2V
