Version 4
SHEET 1 2576 1332
WIRE -1184 112 -1184 80
WIRE -1184 224 -1184 192
WIRE -1184 304 -1184 256
WIRE -1184 416 -1184 384
WIRE -1056 256 -1184 256
WIRE -944 256 -992 256
WIRE -800 320 -832 320
WIRE -784 256 -864 256
WIRE -784 256 -784 80
WIRE -688 256 -784 256
WIRE -688 320 -720 320
WIRE -672 80 -784 80
WIRE -656 240 -656 192
WIRE -656 384 -656 336
WIRE -624 240 -624 192
WIRE -624 448 -624 336
WIRE -592 352 -592 336
WIRE -592 448 -624 448
WIRE -592 448 -592 432
WIRE -544 192 -560 192
WIRE -544 208 -544 192
WIRE -512 80 -592 80
WIRE -512 288 -576 288
WIRE -512 288 -512 80
WIRE -448 288 -512 288
FLAG -1184 224 0
FLAG -1184 80 vcc
FLAG -448 288 out1
IOPIN -448 288 Out
FLAG -656 384 0
FLAG -656 192 vcc
FLAG -1184 416 0
FLAG -832 320 vcc
FLAG -544 208 0
SYMBOL voltage -1184 96 R0
SYMATTR InstName V1
SYMATTR Value 12
SYMBOL res -688 96 R270
WINDOW 0 16 0 VTop 0
WINDOW 3 44 121 VBottom 0
SYMATTR InstName R4
SYMATTR Value 7.5k
SYMBOL res -960 272 R270
WINDOW 0 32 56 VTop 0
WINDOW 3 0 56 VBottom 0
SYMATTR InstName R7
SYMATTR Value 750
SYMBOL voltage -1184 288 R0
WINDOW 3 24 160 Left 0
WINDOW 123 24 132 Left 0
WINDOW 39 0 0 Left 0
SYMATTR Value PULSE(0 .5 0 0.1u 0.1u .5u 1u)
SYMATTR Value2 AC 1
SYMATTR InstName V2
SYMBOL cap -1056 272 R270
WINDOW 0 32 32 VTop 0
WINDOW 3 0 32 VBottom 0
SYMATTR InstName C2
SYMATTR Value 0.1µ
SYMBOL res -816 336 R270
WINDOW 0 32 56 VTop 0
WINDOW 3 0 56 VBottom 0
SYMATTR InstName R9
SYMATTR Value 20k
SYMBOL res -608 448 M180
WINDOW 0 36 76 Left 0
WINDOW 3 36 40 Left 0
SYMATTR InstName R11
SYMATTR Value 20k
SYMBOL cap -624 208 R270
WINDOW 0 32 32 VTop 0
WINDOW 3 0 32 VBottom 0
SYMATTR InstName Ccomp
SYMATTR Value 1f
SYMBOL OpAmp.Add\\LM359ns -672 288 R0
SYMATTR InstName U1
TEXT -1216 8 Left 0 !.op
TEXT -1104 136 Left 0 !.ac dec 100 100 50MEG
TEXT -1112 168 Left 0 !;tran 0 1m 0 .1u
TEXT -1136 -24 Left 0 ;Amplifier with NORTON opamp from NS\nHelmut Sennewald 12/21/2005\nReference: Datasheet from National Semiconductor\nChange Ccomp to see it's influence.
TEXT -1144 352 Left 0 !.options method=Gear
TEXT -1144 384 Left 0 !.options plotwinsize=0
