Version 4
SHEET 1 1392 1172
WIRE -128 -48 -208 -48
WIRE 32 -48 -48 -48
WIRE 96 -48 32 -48
WIRE 224 -48 160 -48
WIRE 32 -16 32 -48
WIRE 96 -16 32 -16
WIRE 224 -16 224 -48
WIRE 224 -16 176 -16
WIRE 128 176 128 144
WIRE 32 192 32 -16
WIRE 96 192 32 192
WIRE 224 208 224 -16
WIRE 224 208 160 208
WIRE 256 208 224 208
WIRE 96 224 32 224
WIRE -208 240 -208 -48
WIRE -208 272 -208 240
WIRE -128 272 -128 240
WIRE -48 272 -48 240
WIRE 32 272 32 224
WIRE 128 272 128 240
WIRE -208 384 -208 352
WIRE -128 384 -128 352
WIRE -48 384 -48 352
WIRE 32 384 32 352
FLAG -128 384 0
FLAG -208 384 0
FLAG 256 208 out
IOPIN 256 208 Out
FLAG -208 240 in
FLAG 128 144 V+
FLAG -128 240 V+
FLAG 32 384 0
FLAG -48 384 0
FLAG -48 240 V-
FLAG 128 272 V-
SYMBOL voltage -128 256 R0
WINDOW 123 0 0 Left 0
WINDOW 39 0 0 Left 0
WINDOW 0 -16 57 Left 0
WINDOW 3 -33 6 Left 0
SYMATTR InstName V+
SYMATTR Value 12
SYMBOL res -32 -64 R90
WINDOW 0 16 107 VBottom 0
WINDOW 3 -12 0 VTop 0
SYMATTR InstName R2
SYMATTR Value 10k
SYMBOL voltage -208 256 R0
WINDOW 3 -196 171 Left 0
WINDOW 123 0 0 Left 0
WINDOW 39 0 0 Left 0
WINDOW 0 -16 60 Left 0
SYMATTR Value PWL(0 0 200u 0 REPEAT FOREVER (.2u .1 250u .1 250.2u -0.1 500u -.1)  ENDREPEAT
SYMATTR InstName Vin
SYMBOL cap 160 -64 R90
WINDOW 0 16 66 VBottom 0
WINDOW 3 -12 -2 VTop 0
SYMATTR InstName C1
SYMATTR Value 1p
SYMBOL res 192 -32 R90
WINDOW 0 15 105 VBottom 0
WINDOW 3 -12 9 VTop 0
SYMATTR InstName R1
SYMATTR Value 90k
SYMBOL res 16 256 R0
WINDOW 0 31 48 Left 0
WINDOW 3 32 83 Left 0
SYMATTR InstName R3
SYMATTR Value 9k
SYMBOL voltage -48 256 R0
WINDOW 123 0 0 Left 0
WINDOW 39 0 0 Left 0
WINDOW 0 -12 59 Left 0
WINDOW 3 -39 4 Left 0
SYMATTR InstName V-
SYMATTR Value -12
SYMBOL Robertugo\\OPAMP5 128 144 R0
SYMATTR InstName U1
SYMATTR SpiceModel LM741/NS
TEXT -480 16 Left 0 !.tran 0 10m 0 .5u
TEXT -192 128 Left 0 ;Universal Symbol \n"opamp2" used
TEXT -480 -16 Left 0 !.options plotwinsize=0
LINE Normal -304 304 -256 304
LINE Normal -464 432 -304 304
LINE Normal -416 432 -464 432
