Version 4
SHEET 1 1200 1172
WIRE 80 -96 32 -96
WIRE 208 -96 144 -96
WIRE -112 -16 -304 -16
WIRE 32 -16 32 -96
WIRE 32 -16 -32 -16
WIRE 80 -16 32 -16
WIRE 208 -16 208 -96
WIRE 208 -16 160 -16
WIRE -304 16 -304 -16
WIRE -240 64 -240 32
WIRE -128 64 -128 32
WIRE -304 176 -304 96
WIRE -240 176 -240 144
WIRE -128 176 -128 144
WIRE 128 176 128 160
WIRE 32 192 32 -16
WIRE 96 192 32 192
WIRE 208 208 208 -16
WIRE 208 208 160 208
WIRE 224 208 208 208
WIRE -32 224 -80 224
WIRE 96 224 48 224
WIRE 128 256 128 240
FLAG -128 176 0
FLAG -80 224 0
FLAG -304 176 0
FLAG 224 208 out
IOPIN 224 208 Out
FLAG -240 176 0
FLAG -304 -16 in
FLAG 128 160 V+
FLAG 128 256 V-
FLAG -240 32 V-
FLAG -128 32 V+
SYMBOL voltage -128 48 R0
WINDOW 123 0 0 Left 0
WINDOW 39 0 0 Left 0
WINDOW 3 -7 60 Left 0
SYMATTR Value 5
SYMATTR InstName V+
SYMBOL voltage -240 48 R0
WINDOW 123 0 0 Left 0
WINDOW 39 0 0 Left 0
WINDOW 3 -11 61 Left 0
SYMATTR Value -5
SYMATTR InstName V-
SYMBOL res -16 -32 R90
WINDOW 0 17 106 VBottom 0
WINDOW 3 -11 4 VTop 0
SYMATTR InstName R2
SYMATTR Value 10k
SYMBOL voltage -304 0 R0
WINDOW 3 397 261 Right 0
WINDOW 123 0 0 Left 0
WINDOW 39 0 0 Left 0
WINDOW 0 -14 61 Left 0
SYMATTR Value PULSE(-0.1 0.1 0 10ns 10ns 200us 400us)
SYMATTR InstName Vs
SYMBOL cap 144 -112 R90
WINDOW 0 17 63 VBottom 0
WINDOW 3 -12 -1 VTop 0
SYMATTR InstName C1
SYMATTR Value 1p
SYMBOL res 176 -32 R90
WINDOW 0 0 56 VBottom 0
WINDOW 3 32 56 VTop 0
SYMATTR InstName R1
SYMATTR Value 100k
SYMBOL res -48 240 R270
WINDOW 0 15 -3 VTop 0
WINDOW 3 44 113 VBottom 0
SYMATTR InstName R3
SYMATTR Value 100
SYMBOL Robertugo\\OPAMP5 128 144 R0
WINDOW 38 -71 -49 Left 0
SYMATTR SpiceModel LM7111B/NS
SYMATTR InstName U1
TEXT -264 -72 Left 0 !.tran 0 500u 0 500n
TEXT 224 56 Left 0 ;Use the Alternate Solver with this Opamp.\nControl Panel -> SPICE -> Solver: Alternate\n \nLMC7111B from National Semiconductor
TEXT -264 -96 Left 0 !.options plotwinsize=0
