Version 4
SHEET 1 880 680
WIRE 112 128 80 128
WIRE 224 128 192 128
WIRE 464 176 464 160
WIRE 160 224 160 208
WIRE -32 240 -64 240
WIRE 80 240 80 128
WIRE 80 240 48 240
WIRE 128 240 80 240
WIRE 224 256 224 128
WIRE 224 256 192 256
WIRE 304 256 224 256
WIRE 352 256 304 256
WIRE 128 272 80 272
WIRE 304 272 304 256
WIRE 464 288 464 256
WIRE 464 288 448 288
WIRE 160 304 160 288
WIRE 464 320 464 288
WIRE -64 352 -96 352
WIRE -32 352 -64 352
WIRE 80 352 80 272
WIRE 80 352 48 352
WIRE -64 368 -64 352
WIRE 304 368 304 352
WIRE 464 416 464 400
WIRE -64 464 -64 448
FLAG 304 368 0
FLAG -64 240 0
FLAG 448 288 0
FLAG 464 160 Vcc
FLAG 160 208 Vcc
FLAG 464 416 Vee
FLAG 160 304 Vee
FLAG -64 464 0
FLAG 352 256 out
IOPIN 352 256 Out
FLAG -96 352 in
IOPIN -96 352 In
SYMBOL res 288 368 M180
WINDOW 0 36 76 Left 0
WINDOW 3 36 40 Left 0
SYMATTR InstName R1
SYMATTR Value 1k
SYMBOL res 208 112 R90
WINDOW 0 16 102 VBottom 0
WINDOW 3 -11 3 VTop 0
SYMATTR InstName R2
SYMATTR Value 1k
SYMBOL res 64 224 R90
WINDOW 0 16 105 VBottom 0
WINDOW 3 -12 12 VTop 0
SYMATTR InstName R3
SYMATTR Value 1k
SYMBOL voltage 464 160 R0
WINDOW 123 0 0 Left 0
WINDOW 39 0 0 Left 0
WINDOW 0 -14 59 Left 0
WINDOW 3 -50 56 Left 0
SYMATTR InstName V+
SYMATTR Value 5
SYMBOL voltage 464 304 R0
WINDOW 0 -12 61 Left 0
WINDOW 3 -53 56 Left 0
SYMATTR InstName V-
SYMATTR Value 5
SYMBOL res 64 336 R90
WINDOW 0 16 105 VBottom 0
WINDOW 3 -12 8 VTop 0
SYMATTR InstName R4
SYMATTR Value 720
SYMBOL voltage -64 352 R0
WINDOW 123 40 82 Left 0
WINDOW 39 0 0 Left 0
WINDOW 0 -14 55 Left 0
WINDOW 3 39 56 Left 0
SYMATTR Value2 AC 1
SYMATTR InstName Vs
SYMATTR Value SINE(0 1 30meg)
SYMBOL Robertugo\\OPAMP5 160 192 R0
WINDOW 0 -25 63 Left 0
WINDOW 38 20 112 Left 0
SYMATTR InstName U2
SYMATTR SpiceModel LMH6655
TEXT -168 128 Left 0 !.tran 0 1u 0 1n
TEXT -176 152 Left 0 !.options plotwinsize=0
TEXT -160 88 Left 0 ;This Opamp is already slew rate limited with this amplitude at 30MHz.
