Version 4
SHEET 1 952 680
WIRE 672 -144 656 -144
WIRE 768 -144 752 -144
WIRE 672 -112 640 -112
WIRE 784 -112 752 -112
WIRE 672 -80 624 -80
WIRE 800 -80 752 -80
WIRE -96 -64 -144 -64
WIRE -80 -64 -96 -64
WIRE 672 -48 608 -48
WIRE 816 -48 752 -48
WIRE -144 -32 -144 -64
WIRE 672 -16 592 -16
WIRE 832 -16 752 -16
WIRE 672 16 576 16
WIRE 848 16 752 16
WIRE 112 48 48 48
WIRE 368 48 272 48
WIRE 672 48 576 48
WIRE 848 48 752 48
WIRE 672 80 592 80
WIRE 832 80 752 80
WIRE 112 96 48 96
WIRE 672 112 608 112
WIRE 816 112 752 112
WIRE 672 144 624 144
WIRE 800 144 752 144
WIRE 672 176 640 176
WIRE 784 176 752 176
WIRE 672 208 656 208
WIRE 768 208 752 208
FLAG 48 48 d[0:63]
IOPIN 48 48 In
FLAG 48 96 clk
FLAG -144 48 0
FLAG -64 224 0
FLAG -64 144 clk
FLAG -96 -64 d[0]
FLAG 368 48 d[1:64]
IOPIN 368 48 Out
FLAG 656 -144 clk
FLAG 640 -112 d[0]
FLAG 624 -80 d[1]
FLAG 608 -48 d[2]
FLAG 592 -16 d[3]
FLAG 576 16 d[31]
FLAG 576 48 d[32]
FLAG 592 80 d[33]
FLAG 608 112 d[61]
FLAG 624 144 d[62]
FLAG 640 176 d[63]
FLAG 656 208 d[64]
FLAG 768 -144 clkout
FLAG 784 -112 d0
FLAG 800 -80 d1
FLAG 816 -48 d2
FLAG 832 -16 d3
FLAG 848 16 d31
FLAG 848 48 d32
FLAG 832 80 d33
FLAG 816 112 d61
FLAG 800 144 d62
FLAG 784 176 d63
FLAG 768 208 d64
SYMBOL Digital\\dflop 192 0 R0
WINDOW 3 8 12 Left 0
SYMATTR Value td=1n
SYMATTR InstName A[0:63]
SYMBOL voltage -144 -48 R0
WINDOW 3 4 -66 Left 0
WINDOW 123 0 0 Left 0
WINDOW 39 0 0 Left 0
SYMATTR Value PULSE(0 1 10n 1n 1n 1000n 3000n)
SYMATTR InstName V1
SYMBOL voltage -64 128 R0
WINDOW 3 -23 156 Left 0
WINDOW 123 0 0 Left 0
WINDOW 39 0 0 Left 0
SYMATTR Value PULSE(0 1 250n 1n 1n 500n 1000n)
SYMATTR InstName V2
SYMBOL dview12 688 0 R0
SYMATTR InstName U1
SYMATTR SpiceLine OFFSET=0  GAIN=0.5
TEXT -192 -168 Left 0 !.tran 100u
TEXT -48 -168 Left 0 !.inc dview.lib
TEXT -192 -256 Left 0 ;64-Bit Shift Register
TEXT -184 -224 Left 0 ;22March2010 G.Salmonson
