Version 4
SHEET 1 1160 1232
WIRE -160 496 -224 496
WIRE -32 496 -160 496
WIRE 128 496 64 496
WIRE 256 496 128 496
WIRE -160 528 -224 528
WIRE -96 528 -160 528
WIRE 128 528 64 528
WIRE 192 528 128 528
WIRE -96 560 -96 528
WIRE -32 560 -32 496
WIRE 192 560 192 528
WIRE 256 560 256 496
WIRE -32 640 -96 640
WIRE 192 640 -32 640
WIRE 256 640 192 640
WIRE -96 672 -96 640
WIRE -256 768 -320 768
WIRE -192 768 -256 768
WIRE 160 768 96 768
WIRE 224 768 160 768
WIRE -320 800 -320 768
WIRE -192 800 -192 768
WIRE 96 800 96 768
WIRE 224 800 224 768
WIRE -320 912 -320 880
WIRE -192 912 -192 880
WIRE 96 912 96 880
WIRE 224 912 224 880
FLAG -96 672 0
FLAG -160 496 d_gauss_1
FLAG -160 528 p_gauss_1
FLAG 128 496 d_gauss_2
FLAG 128 528 p_gauss_2
FLAG -320 912 0
FLAG -192 912 0
FLAG 96 912 0
FLAG 224 912 0
FLAG -256 768 a1
FLAG 160 768 a2
SYMBOL res -112 544 R0
SYMATTR InstName R1
SYMATTR Value 1
SYMBOL res -48 544 R0
SYMATTR InstName R2
SYMATTR Value 1
SYMBOL res 176 544 R0
SYMATTR InstName R3
SYMATTR Value 1
SYMBOL res 240 544 R0
SYMATTR InstName R4
SYMATTR Value 1
SYMBOL res -208 784 R0
SYMATTR InstName R5
SYMATTR Value {process_var_gauss}
SYMBOL current -320 880 M180
WINDOW 0 24 88 Left 0
WINDOW 3 24 0 Left 0
SYMATTR InstName I1
SYMATTR Value 1
SYMBOL res 208 784 R0
SYMATTR InstName R6
SYMATTR Value {process_var_gauss}
SYMBOL current 96 880 M180
WINDOW 0 24 88 Left 0
WINDOW 3 24 0 Left 0
SYMATTR InstName I2
SYMATTR Value 1
SYMBOL device_gauss -272 480 R0
SYMATTR InstName U1
SYMBOL device_gauss 16 480 R0
SYMATTR InstName U2
TEXT -280 240 Left 0 !.op
TEXT -280 280 Left 0 !.include device_gauss.sub
TEXT -280 168 Left 0 !.param process_var_gauss=gauss(1)
TEXT -288 328 Left 0 ;ISSUE: a new random value for process_var_gauss is drawn for\neach instance of device_gauss
TEXT -208 240 Left 0 !.step param n 1 10 1 ;for mc
TEXT -272 64 Left 0 ;It has been necessary to pass the common parameter\n"process_var_gauss" through the symbol.\nOtherwise a different value has been used for every instance.
