Version 4
SHEET 1 1224 688
WIRE 320 208 320 192
WIRE 320 336 320 288
WIRE 336 192 320 192
WIRE 400 192 336 192
WIRE 448 112 448 80
WIRE 448 256 448 208
WIRE 448 288 448 256
WIRE 448 368 448 352
WIRE 672 80 448 80
WIRE 672 160 448 160
WIRE 672 160 672 80
WIRE 848 80 672 80
WIRE 848 160 848 80
WIRE 848 272 848 240
FLAG 848 272 0
FLAG 320 336 0
FLAG 336 192 Vin
FLAG 448 368 0
FLAG 448 256 Vout
SYMBOL voltage 320 192 R0
WINDOW 0 -93 54 Left 0
WINDOW 3 -314 107 Left 0
WINDOW 123 0 0 Left 0
WINDOW 39 0 0 Left 0
SYMATTR InstName Vin
SYMATTR Value PULSE(5 0 200p 100p 100p)
SYMBOL pmos4 400 112 R0
WINDOW 123 56 100 Left 0
SYMATTR Value2 L=1u W=10u
SYMATTR InstName M1
SYMATTR Value P_1u
SYMBOL voltage 848 144 R0
WINDOW 123 0 0 Left 0
WINDOW 39 0 0 Left 0
WINDOW 0 38 54 Left 0
WINDOW 3 38 82 Left 0
SYMATTR InstName VDD
SYMATTR Value 5
SYMBOL cap 432 288 R0
SYMATTR InstName C1
SYMATTR Value 50f IC=0
TEXT 584 312 Left 0 !.tran 800p UIC
TEXT 584 336 Left 0 !.lib cmosedu_models.txt
TEXT 488 56 Left 0 ;Plot Vout Vin
