Version 4
SHEET 1 1136 680
WIRE 208 -96 208 -112
WIRE 208 0 208 -16
WIRE 304 -304 304 -320
WIRE 304 -288 304 -304
WIRE 304 -176 304 -208
WIRE 368 -112 208 -112
WIRE 784 -112 720 -112
WIRE 848 -112 784 -112
WIRE 848 -80 848 -112
WIRE 848 16 848 -16
FLAG 208 0 0
FLAG 848 16 0
FLAG 784 -112 Vout
FLAG 208 -112 Vin
FLAG 304 -176 0
FLAG 304 -304 VDD
FLAG 464 -208 VDD
FLAG 608 -16 VDD
FLAG 464 -16 0
FLAG 608 -208 0
SYMBOL voltage 208 -112 R0
WINDOW 0 -85 56 Left 0
WINDOW 3 -119 152 Left 0
WINDOW 123 0 0 Left 0
WINDOW 39 0 0 Left 0
SYMATTR InstName Vin
SYMATTR Value PULSE(0 1 500p 0 0 1n 3n)
SYMBOL cap 832 -80 R0
SYMATTR InstName C1
SYMATTR Value 50f
SYMBOL voltage 304 -304 R0
WINDOW 123 0 0 Left 0
WINDOW 39 0 0 Left 0
SYMATTR InstName VDD
SYMATTR Value 1
SYMBOL TG_20_10 320 -112 R0
SYMATTR InstName U1
TEXT 392 40 Left 0 !.tran 2.5n
TEXT 88 88 Left 0 !.lib cmosedu_models.txt
TEXT 576 -272 Left 0 ;Plot Vout Vin
