Version 4
SHEET 1 880 788
WIRE 112 64 -64 64
WIRE -64 160 -64 64
WIRE 112 176 112 144
WIRE 368 176 112 176
WIRE 112 192 112 176
WIRE -64 336 -64 240
WIRE 112 336 112 272
FLAG 112 336 0
FLAG -64 336 0
FLAG 368 176 out
IOPIN 368 176 Out
SYMBOL PT100 96 176 R0
SYMATTR InstName U1
SYMATTR Value ""
SYMBOL res 96 48 R0
SYMATTR InstName R1
SYMATTR Value 100R
SYMBOL voltage -64 144 R0
WINDOW 123 0 0 Left 0
WINDOW 39 0 0 Left 0
SYMATTR InstName V1
SYMATTR Value 1
TEXT -112 384 Left 0 !.step param sensT list 0 25 50 75 100 125 150
TEXT -24 360 Left 0 !.op
