Version 4
SHEET 1 1136 692
WIRE 512 0 368 0
WIRE 704 0 592 0
WIRE 416 64 416 48
WIRE 368 80 368 0
WIRE 384 80 368 80
WIRE 704 96 704 0
WIRE 704 96 448 96
WIRE 736 96 704 96
WIRE 768 96 736 96
WIRE 224 112 208 112
WIRE 256 112 224 112
WIRE 384 112 336 112
WIRE 704 128 704 96
WIRE 768 128 768 96
WIRE 48 144 48 128
WIRE 128 144 128 128
WIRE 208 144 208 112
WIRE 416 144 416 128
WIRE 704 240 704 208
WIRE 768 240 768 192
WIRE 768 240 704 240
WIRE 48 256 48 224
WIRE 128 256 128 224
WIRE 208 256 208 224
WIRE 704 272 704 240
FLAG 208 256 0
FLAG 416 48 V+
FLAG 128 128 V+
FLAG 416 144 V-
FLAG 48 128 V-
FLAG 704 272 0
FLAG 128 256 0
FLAG 48 256 0
FLAG 224 112 in
FLAG 736 96 Out
SYMBOL voltage 208 128 R0
WINDOW 39 24 132 Left 0
WINDOW 3 2 109 Left 0
WINDOW 0 -18 57 Left 0
SYMATTR Value PULSE(-0.5 0.5 0ns 10ns 10ns 90ns 200ns)
SYMATTR InstName Vin
SYMATTR Value2 AC 0.5
SYMBOL voltage 128 128 R0
WINDOW 123 0 0 Left 0
WINDOW 39 0 0 Left 0
WINDOW 0 -16 59 Left 0
WINDOW 3 8 11 Left 0
SYMATTR InstName V+
SYMATTR Value 3.3
SYMBOL voltage 48 128 R0
WINDOW 123 0 0 Left 0
WINDOW 39 0 0 Left 0
WINDOW 0 -12 58 Left 0
WINDOW 3 12 10 Left 0
SYMATTR InstName V-
SYMATTR Value -3.3
SYMBOL res 688 112 R0
WINDOW 0 -34 35 Left 0
WINDOW 3 -36 64 Left 0
SYMATTR InstName R1
SYMATTR Value 100
SYMBOL cap 752 128 R0
WINDOW 0 -18 11 Left 0
WINDOW 3 -15 51 Left 0
SYMATTR InstName C1
SYMATTR Value 5p
SYMBOL res 352 96 R90
WINDOW 0 0 56 VBottom 0
WINDOW 3 32 56 VTop 0
SYMATTR InstName R2
SYMATTR Value 100
SYMBOL res 608 -16 R90
WINDOW 0 15 112 VBottom 0
WINDOW 3 -12 -2 VTop 0
SYMATTR InstName R3
SYMATTR Value 100
SYMBOL Robertugo\\OPAMP5 416 32 R0
WINDOW 0 -27 64 Left 0
SYMATTR InstName U1
SYMATTR SpiceModel AD8065
TEXT 24 -16 Left 0 !.Tran 200ns
TEXT 24 16 Left 0 !.option itl1=200
