Version 4
SHEET 1 1328 2056
WIRE -304 96 -304 -32
WIRE -304 -32 -448 -32
WIRE -448 -32 -448 144
WIRE -448 224 -448 272
WIRE -304 160 -304 272
WIRE -224 -32 -304 -32
WIRE -160 -32 -32 -32
WIRE -32 -32 -32 144
WIRE -32 224 -32 272
WIRE -32 272 -304 272
WIRE -448 272 -448 304
WIRE 128 144 128 96
WIRE 128 272 128 224
WIRE -32 272 128 272
WIRE -400 608 -400 576
WIRE -400 576 -320 576
WIRE -320 576 -272 576
WIRE -400 1104 -400 1136
WIRE -400 1008 -400 976
WIRE -400 976 -320 976
WIRE -320 976 32 976
WIRE 32 976 32 1008
WIRE 32 1104 32 1088
WIRE -400 704 -400 736
WIRE 128 96 160 96
WIRE 672 16 672 -32
WIRE 672 -32 512 -32
WIRE 368 -32 368 96
WIRE 368 176 368 272
WIRE 672 80 672 112
WIRE 368 272 512 272
WIRE 368 272 368 304
WIRE 672 224 672 272
WIRE 672 112 736 112
WIRE 672 112 672 144
WIRE 512 -32 512 96
WIRE 512 160 512 272
WIRE 512 272 672 272
WIRE 512 -32 368 -32
WIRE -304 272 -448 272
WIRE -400 1488 -400 1520
WIRE -400 1408 -400 1360
WIRE -400 1360 -352 1360
WIRE 32 1360 32 1392
WIRE 32 1488 32 1472
WIRE -352 1360 32 1360
FLAG -448 304 0
FLAG -448 -32 1
FLAG -32 -32 2
FLAG 160 96 3
IOPIN 160 96 Out
FLAG -320 576 vn
FLAG -400 1136 0
FLAG -320 976 in
FLAG 32 1104 0
FLAG -400 736 0
FLAG 368 304 0
FLAG 368 -32 10
FLAG 736 112 30
IOPIN 736 112 Out
FLAG -400 1520 0
FLAG -352 1360 ir1
FLAG 32 1488 0
SYMBOL diode -320 96 R0
WINDOW 3 31 75 Left 0
SYMATTR Value DN
SYMATTR InstName D1
SYMBOL current -448 224 R180
WINDOW 0 24 88 Left 0
WINDOW 3 24 0 Left 0
WINDOW 123 0 0 Left 0
WINDOW 39 0 0 Left 0
SYMATTR InstName I1
SYMATTR Value 100µ
SYMBOL cap -224 -16 R270
WINDOW 0 32 32 VTop 0
WINDOW 3 0 32 VBottom 0
SYMATTR InstName C1
SYMATTR Value 1e6
SYMBOL voltage -32 128 R0
WINDOW 123 0 0 Left 0
WINDOW 39 24 132 Left 0
SYMATTR InstName VS
SYMATTR Value 0
SYMBOL h 128 128 R0
SYMATTR InstName H1
SYMATTR Value VS 1
SYMBOL res 16 992 R0
SYMATTR InstName Rload
SYMATTR Value 100
SYMBOL I1FNOISE -432 1040 R0
WINDOW 3 48 75 Left 0
SYMATTR Value I1FNOISE    INW=1e-10  FNCE=200
SYMATTR InstName U1
SYMBOL V1FNOISE -432 640 R0
SYMATTR InstName U2
SYMBOL diode 656 16 R0
WINDOW 3 31 75 Left 0
SYMATTR Value DN
SYMATTR InstName D2
SYMBOL current 368 176 R180
WINDOW 0 24 88 Left 0
WINDOW 3 24 0 Left 0
WINDOW 123 0 0 Left 0
WINDOW 39 0 0 Left 0
SYMATTR InstName I2
SYMATTR Value 100µ
SYMBOL res 656 128 R0
WINDOW 123 36 104 Left 0
SYMATTR Value2 noiseless
SYMATTR InstName R2
SYMATTR Value 1
SYMBOL cap 496 96 R0
SYMATTR InstName C2
SYMATTR Value 1e6
SYMBOL res 16 1376 R0
SYMATTR InstName Rnoise1
SYMATTR Value 10000
SYMBOL current -400 1488 M180
WINDOW 0 24 88 Left 0
WINDOW 3 24 0 Left 0
SYMATTR InstName I3
SYMATTR Value 100µ
TEXT -368 336 Left 0 ;.MODEL DN D(IS=1e-15)
TEXT 424 -344 Left 0 ;.noise V(in) vs oct 100 0.1 10e6
TEXT 432 -264 Left 0 !.op
TEXT 360 528 Left 0 !*NOISE VOLTAGE SOURCE WITH 1/F\n* ENW is noise density in V/Hz^0.5\n* FNCE is 1/f corner frequency in Hz\n.SUBCKT V1FNOISE 3 4  ENW1={ENW} FNCE1={FNCE}\n.PARAM HGAIN=ENW1/1e-12\n.PARAM Q=1.602e-19\n.PARAM IDC=(1e-24)/(2*Q)\n.PARAM KF1={2*Q*FNCE1}\nD2 1 4 DNOISE1\nI1 4 1 {IDC}\nC1 1 2 1\nVS 2 4 0\nH1 3 4 VS {HGAIN}\n.MODEL DNOISE1 D(KF={KF1} AF=1)\n.ENDS V1FNOISE
TEXT 352 1112 Left 0 !*NOISE CURRENT SOURCE WITH 1/F\n* INW is noise density in A/Hz^0.5\n* FNCE is 1/f corner frequency in Hz\n.SUBCKT I1FNOISE 3 4  INW1={INW} FNCE1={FNCE}\n.PARAM HGAIN=INW1/1e-12\n.PARAM Q=1.602e-19\n.PARAM IDC=(1e-24)/(2*Q)\n.PARAM KF1={2*Q*FNCE1}\nD2 1 4 DNOISE1\nI1 4 1 {IDC}\nC1 1 2 1\nVS 2 4 0\nF1 3 4 VS {HGAIN}\n.MODEL DNOISE1 D(KF={KF1} AF=1)\n.ENDS I1FNOISE
TEXT -424 528 Left 0 ;NOISE VOLTAGE SOURCE
TEXT -408 928 Left 0 ;NOISE CURRENT SOURCE
TEXT 424 -440 Left 0 ;.noise V(3) I1 oct 100 0.1 10e6
TEXT 424 -376 Left 0 ;.noise V(vn) vs oct 100 0.1 10e6
TEXT -368 384 Left 0 !.MODEL DN  D(IS=1e-15  KF=3.2e-17  AF=1 N=1)
TEXT 424 -408 Left 0 !.noise V(30) I2 oct 100 0.1 10e6
TEXT 32 40 Left 0 ;V=Inoise(D1) * 1V
TEXT 736 64 Left 0 ;V=Inoise(D2) * 1Ohm
TEXT -256 120 Left 0 ;In = sqrt(2*Q*I)
TEXT 520 192 Left 0 ;Short AC
TEXT 408 312 Left 0 ;R2 must be "noiseless", otherwise Vn(R2) will dominate.\nR2  << Rd=Vt/Id = 25mV/I2\nUse 0.001 Ohm for I>10mA
TEXT -448 -1048 Left 0 ;NOISE VOLTAGE SOURCES\nHelmut Sennewald,  8/31/2004\n \nThe first two circuits show how to measure the shot noise current density of a diode.\nWatch the resistor R2 with the attribute "noiseless" used for noise current measurement.\nThe value of R2 must be much lower than the diode resistance rd=Vt/Id, because the \nnoise current is spkit by the ratio of the sense resistor(R2) and the diode's dynamic \nresistance Rd.  Rd = K*T/Q/Id = Vt/Id = 25mV/Id .\nFor Id <10mA(10A) a value of 1Ohm/(1mOhm) is ok.\n \nThe next two examples are noise voltage/current sources with parameters\nfor noise density and corner frequency.\n1/f corner frequency is set with KF={2*Q*Fcorner}     Q=1.602e-19\n \nThe last example shows thermal noise of a resistor.\n \n  \nIn   current noise density      I = diode current\nVn  voltage noise density\n \nThe total noise over a certain bandwidth B is sqrt(B) times the density.\nExample: B=10kHz, En=10nV/Hz^0.5  -> Vn=sqrt(1e4)*10nV=1uV\n \nShot noise current density in a semiconductor pn-junction:\nIn = sqrt(2*Q*I)         Q=1.602e-19\nIn = =sqrt(I/A)*566pA/Hz^0.5     \n \nExample: I=100u  In=5.66pA/Hz^0.5\n \nThermal noise of voltage density of a resistor:\nEn = sqrt(4*R*K*T)       K=1.38e-23   T=300\nEn = sqrt(R/Ohm)*128.7pV/Hz^0.5\n \nExample:  R=10kOhm    En=12.87nV/Hz^0.5
TEXT -408 1312 Left 0 ;Thermal voltage noise of a resistor
TEXT 424 -304 Left 0 ;.noise V(ir1) I3 oct 100 0.1 10e6
TEXT 160 384 Left 0 ;Fcorner =100Hz
TEXT -80 336 Left 0 ;Without 1/f corner
