.SUBCKT BLF245125V50MAN      2  1  3  
* HZ S MA R 
* Z1=50.000000 Z2=50.000000

R1N 1 10 -5.000000e+01
R1P 10 11 1.000000e+02
R2N 2 20 -5.000000e+01
R2P 20 21 1.000000e+02

*S11 FREQ DB PHASE
E11 11 12 FREQ {V(10,3)}=
+(  5.000000e+06gHz, -8.191722e-01, -4.830000e+01)
+(  1.000000e+07gHz, -1.938200e+00, -8.140000e+01)
+(  1.500000e+07gHz, -2.615366e+00, -1.028000e+02)
+(  2.000000e+07gHz, -2.974833e+00, -1.167000e+02)
+(  2.500000e+07gHz, -3.223018e+00, -1.259000e+02)
+(  3.000000e+07gHz, -3.349822e+00, -1.323000e+02)
+(  3.500000e+07gHz, -3.223018e+00, -1.369000e+02)
+(  4.000000e+07gHz, -3.223018e+00, -1.403000e+02)
+(  4.500000e+07gHz, -3.098039e+00, -1.430000e+02)
+(  5.000000e+07gHz, -2.974833e+00, -1.452000e+02)
+(  5.500000e+07gHz, -2.853350e+00, -1.471000e+02)
+(  6.000000e+07gHz, -2.733543e+00, -1.486000e+02)
+(  6.500000e+07gHz, -2.615366e+00, -1.499000e+02)
+(  7.000000e+07gHz, -2.498775e+00, -1.511000e+02)
+(  7.500000e+07gHz, -2.383728e+00, -1.521000e+02)
+(  8.000000e+07gHz, -2.270185e+00, -1.531000e+02)
+(  8.500000e+07gHz, -2.158108e+00, -1.541000e+02)
+(  9.000000e+07gHz, -2.047458e+00, -1.551000e+02)
+(  9.500000e+07gHz, -1.938200e+00, -1.562000e+02)
+(  1.000000e+08gHz, -1.830300e+00, -1.573000e+02)
+(  1.050000e+08gHz, -1.723723e+00, -1.583000e+02)
+(  1.100000e+08gHz, -1.723723e+00, -1.593000e+02)
+(  1.150000e+08gHz, -1.618438e+00, -1.603000e+02)
+(  1.200000e+08gHz, -1.618438e+00, -1.611000e+02)
+(  1.250000e+08gHz, -1.514414e+00, -1.619000e+02)
+(  1.300000e+08gHz, -1.411621e+00, -1.626000e+02)
+(  1.350000e+08gHz, -1.411621e+00, -1.633000e+02)
+(  1.400000e+08gHz, -1.310031e+00, -1.639000e+02)
+(  1.450000e+08gHz, -1.209615e+00, -1.644000e+02)
+(  1.500000e+08gHz, -1.209615e+00, -1.650000e+02)
+(  1.550000e+08gHz, -1.110347e+00, -1.655000e+02)
+(  1.600000e+08gHz, -1.012200e+00, -1.661000e+02)
+(  1.650000e+08gHz, -1.012200e+00, -1.666000e+02)
+(  1.700000e+08gHz, -9.151498e-01, -1.673000e+02)
+(  1.750000e+08gHz, -8.191722e-01, -1.679000e+02)
+(  1.800000e+08gHz, -8.191722e-01, -1.685000e+02)
+(  1.850000e+08gHz, -8.191722e-01, -1.691000e+02)
+(  1.900000e+08gHz, -8.191722e-01, -1.698000e+02)
+(  1.950000e+08gHz, -7.242435e-01, -1.704000e+02)
+(  2.000000e+08gHz, -7.242435e-01, -1.710000e+02)
+(  2.050000e+08gHz, -7.242435e-01, -1.716000e+02)
+(  2.100000e+08gHz, -7.242435e-01, -1.721000e+02)
+(  2.150000e+08gHz, -7.242435e-01, -1.726000e+02)
+(  2.200000e+08gHz, -7.242435e-01, -1.731000e+02)
+(  2.250000e+08gHz, -7.242435e-01, -1.735000e+02)
+(  2.300000e+08gHz, -7.242435e-01, -1.739000e+02)
+(  2.350000e+08gHz, -6.303410e-01, -1.743000e+02)
+(  2.400000e+08gHz, -6.303410e-01, -1.747000e+02)
+(  2.450000e+08gHz, -5.374429e-01, -1.751000e+02)
+(  2.500000e+08gHz, -5.374429e-01, -1.755000e+02)
+(  2.550000e+08gHz, -5.374429e-01, -1.759000e+02)
+(  2.600000e+08gHz, -4.455279e-01, -1.764000e+02)
+(  2.650000e+08gHz, -4.455279e-01, -1.768000e+02)
+(  2.700000e+08gHz, -4.455279e-01, -1.772000e+02)
+(  2.750000e+08gHz, -4.455279e-01, -1.777000e+02)
+(  2.800000e+08gHz, -4.455279e-01, -1.782000e+02)
+(  2.850000e+08gHz, -4.455279e-01, -1.786000e+02)
+(  2.900000e+08gHz, -4.455279e-01, -1.790000e+02)
+(  2.950000e+08gHz, -4.455279e-01, -1.794000e+02)
+(  3.000000e+08gHz, -4.455279e-01, -1.798000e+02)
+(  3.050000e+08gHz, -4.455279e-01, -1.802000e+02)
+(  3.100000e+08gHz, -4.455279e-01, -1.805000e+02)
+(  3.150000e+08gHz, -4.455279e-01, -1.808000e+02)
+(  3.200000e+08gHz, -4.455279e-01, -1.811000e+02)
+(  3.250000e+08gHz, -4.455279e-01, -1.814000e+02)
+(  3.300000e+08gHz, -4.455279e-01, -1.818000e+02)
+(  3.350000e+08gHz, -3.545753e-01, -1.821000e+02)
+(  3.400000e+08gHz, -3.545753e-01, -1.824000e+02)
+(  3.450000e+08gHz, -3.545753e-01, -1.828000e+02)
+(  3.500000e+08gHz, -3.545753e-01, -1.831000e+02)
+(  3.550000e+08gHz, -3.545753e-01, -1.835000e+02)
+(  3.600000e+08gHz, -2.645653e-01, -1.839000e+02)
+(  3.650000e+08gHz, -2.645653e-01, -1.842000e+02)
+(  3.700000e+08gHz, -2.645653e-01, -1.846000e+02)
+(  3.750000e+08gHz, -2.645653e-01, -1.850000e+02)
+(  3.800000e+08gHz, -2.645653e-01, -1.853000e+02)
+(  3.850000e+08gHz, -2.645653e-01, -1.856000e+02)
+(  3.900000e+08gHz, -3.545753e-01, -1.859000e+02)
+(  3.950000e+08gHz, -3.545753e-01, -1.862000e+02)
+(  4.000000e+08gHz, -3.545753e-01, -1.865000e+02)
+(  4.050000e+08gHz, -3.545753e-01, -1.867000e+02)
+(  4.100000e+08gHz, -3.545753e-01, -1.870000e+02)
+(  4.150000e+08gHz, -3.545753e-01, -1.873000e+02)
+(  4.200000e+08gHz, -3.545753e-01, -1.876000e+02)
+(  4.250000e+08gHz, -3.545753e-01, -1.878000e+02)
+(  4.300000e+08gHz, -3.545753e-01, -1.881000e+02)
+(  4.350000e+08gHz, -2.645653e-01, -1.884000e+02)
+(  4.400000e+08gHz, -2.645653e-01, -1.887000e+02)
+(  4.450000e+08gHz, -2.645653e-01, -1.891000e+02)
+(  4.500000e+08gHz, -2.645653e-01, -1.894000e+02)
+(  4.550000e+08gHz, -2.645653e-01, -1.897000e+02)
+(  4.600000e+08gHz, -2.645653e-01, -1.900000e+02)
+(  4.650000e+08gHz, -2.645653e-01, -1.904000e+02)
+(  4.700000e+08gHz, -2.645653e-01, -1.907000e+02)
+(  4.750000e+08gHz, -2.645653e-01, -1.910000e+02)
+(  4.800000e+08gHz, -2.645653e-01, -1.912000e+02)
+(  4.850000e+08gHz, -2.645653e-01, -1.915000e+02)
+(  4.900000e+08gHz, -2.645653e-01, -1.917000e+02)
+(  4.950000e+08gHz, -2.645653e-01, -1.920000e+02)
+(  5.000000e+08gHz, -2.645653e-01, -1.922000e+02)
+(  5.050000e+08gHz, -3.545753e-01, -1.925000e+02)
+(  5.100000e+08gHz, -2.645653e-01, -1.927000e+02)
+(  5.150000e+08gHz, -2.645653e-01, -1.930000e+02)
+(  5.200000e+08gHz, -2.645653e-01, -1.933000e+02)
+(  5.250000e+08gHz, -2.645653e-01, -1.935000e+02)
+(  5.300000e+08gHz, -2.645653e-01, -1.938000e+02)
+(  5.350000e+08gHz, -2.645653e-01, -1.941000e+02)
+(  5.400000e+08gHz, -2.645653e-01, -1.944000e+02)
+(  5.450000e+08gHz, -2.645653e-01, -1.948000e+02)
+(  5.500000e+08gHz, -2.645653e-01, -1.951000e+02)
+(  5.550000e+08gHz, -2.645653e-01, -1.954000e+02)
+(  5.600000e+08gHz, -2.645653e-01, -1.956000e+02)
+(  5.650000e+08gHz, -2.645653e-01, -1.960000e+02)
+(  5.700000e+08gHz, -2.645653e-01, -1.962000e+02)
+(  5.750000e+08gHz, -2.645653e-01, -1.964000e+02)
+(  5.800000e+08gHz, -2.645653e-01, -1.967000e+02)
+(  5.850000e+08gHz, -2.645653e-01, -1.969000e+02)
+(  5.900000e+08gHz, -2.645653e-01, -1.972000e+02)
+(  5.950000e+08gHz, -3.545753e-01, -1.974000e+02)
+(  6.000000e+08gHz, -3.545753e-01, -1.976000e+02)
+(  6.050000e+08gHz, -3.545753e-01, -1.978000e+02)
+(  6.100000e+08gHz, -3.545753e-01, -1.981000e+02)
+(  6.150000e+08gHz, -3.545753e-01, -1.984000e+02)
+(  6.200000e+08gHz, -3.545753e-01, -1.987000e+02)
+(  6.250000e+08gHz, -3.545753e-01, -1.989000e+02)
+(  6.300000e+08gHz, -3.545753e-01, -1.992000e+02)
+(  6.350000e+08gHz, -2.645653e-01, -1.995000e+02)
+(  6.400000e+08gHz, -2.645653e-01, -1.998000e+02)
+(  6.450000e+08gHz, -2.645653e-01, -2.001000e+02)
+(  6.500000e+08gHz, -2.645653e-01, -2.004000e+02)
+(  6.550000e+08gHz, -2.645653e-01, -2.007000e+02)
+(  6.600000e+08gHz, -2.645653e-01, -2.009000e+02)
+(  6.650000e+08gHz, -3.545753e-01, -2.012000e+02)
+(  6.700000e+08gHz, -3.545753e-01, -2.014000e+02)
+(  6.750000e+08gHz, -3.545753e-01, -2.016000e+02)
+(  6.800000e+08gHz, -3.545753e-01, -2.019000e+02)
+(  6.850000e+08gHz, -3.545753e-01, -2.021000e+02)
+(  6.900000e+08gHz, -3.545753e-01, -2.023000e+02)
+(  6.950000e+08gHz, -3.545753e-01, -2.026000e+02)
+(  7.000000e+08gHz, -3.545753e-01, -2.028000e+02)
+(  7.050000e+08gHz, -3.545753e-01, -2.030000e+02)
+(  7.100000e+08gHz, -3.545753e-01, -2.033000e+02)
+(  7.150000e+08gHz, -3.545753e-01, -2.036000e+02)
+(  7.200000e+08gHz, -3.545753e-01, -2.039000e+02)
+(  7.250000e+08gHz, -3.545753e-01, -2.042000e+02)
+(  7.300000e+08gHz, -3.545753e-01, -2.044000e+02)
+(  7.350000e+08gHz, -3.545753e-01, -2.048000e+02)
+(  7.400000e+08gHz, -3.545753e-01, -2.050000e+02)
+(  7.450000e+08gHz, -3.545753e-01, -2.053000e+02)
+(  7.500000e+08gHz, -3.545753e-01, -2.056000e+02)
+(  7.550000e+08gHz, -4.455279e-01, -2.059000e+02)
+(  7.600000e+08gHz, -4.455279e-01, -2.061000e+02)
+(  7.650000e+08gHz, -4.455279e-01, -2.064000e+02)
+(  7.700000e+08gHz, -4.455279e-01, -2.066000e+02)
+(  7.750000e+08gHz, -4.455279e-01, -2.068000e+02)
+(  7.800000e+08gHz, -4.455279e-01, -2.070000e+02)
+(  7.850000e+08gHz, -4.455279e-01, -2.071000e+02)
+(  7.900000e+08gHz, -5.374429e-01, -2.073000e+02)
+(  7.950000e+08gHz, -5.374429e-01, -2.074000e+02)
+(  8.000000e+08gHz, -5.374429e-01, -2.076000e+02)
+(  8.050000e+08gHz, -5.374429e-01, -2.077000e+02)
+(  8.100000e+08gHz, -5.374429e-01, -2.079000e+02)
+(  8.150000e+08gHz, -5.374429e-01, -2.080000e+02)
+(  8.200000e+08gHz, -5.374429e-01, -2.082000e+02)
+(  8.250000e+08gHz, -5.374429e-01, -2.084000e+02)
+(  8.300000e+08gHz, -4.455279e-01, -2.087000e+02)
+(  8.350000e+08gHz, -4.455279e-01, -2.090000e+02)
+(  8.400000e+08gHz, -4.455279e-01, -2.092000e+02)
+(  8.450000e+08gHz, -4.455279e-01, -2.095000e+02)
+(  8.500000e+08gHz, -4.455279e-01, -2.098000e+02)
+(  8.550000e+08gHz, -4.455279e-01, -2.101000e+02)
+(  8.600000e+08gHz, -4.455279e-01, -2.104000e+02)
+(  8.650000e+08gHz, -4.455279e-01, -2.106000e+02)
+(  8.700000e+08gHz, -4.455279e-01, -2.108000e+02)
+(  8.750000e+08gHz, -4.455279e-01, -2.110000e+02)
+(  8.800000e+08gHz, -4.455279e-01, -2.113000e+02)
+(  8.850000e+08gHz, -4.455279e-01, -2.115000e+02)
+(  8.900000e+08gHz, -4.455279e-01, -2.117000e+02)
+(  8.950000e+08gHz, -4.455279e-01, -2.120000e+02)
+(  9.000000e+08gHz, -4.455279e-01, -2.122000e+02)
+(  9.050000e+08gHz, -4.455279e-01, -2.125000e+02)
+(  9.100000e+08gHz, -4.455279e-01, -2.128000e+02)
+(  9.150000e+08gHz, -4.455279e-01, -2.130000e+02)
+(  9.200000e+08gHz, -4.455279e-01, -2.133000e+02)
+(  9.250000e+08gHz, -4.455279e-01, -2.136000e+02)
+(  9.300000e+08gHz, -4.455279e-01, -2.139000e+02)
+(  9.350000e+08gHz, -4.455279e-01, -2.143000e+02)
+(  9.400000e+08gHz, -4.455279e-01, -2.145000e+02)
+(  9.450000e+08gHz, -4.455279e-01, -2.148000e+02)
+(  9.500000e+08gHz, -4.455279e-01, -2.151000e+02)
+(  9.550000e+08gHz, -4.455279e-01, -2.153000e+02)
+(  9.600000e+08gHz, -5.374429e-01, -2.157000e+02)
+(  9.650000e+08gHz, -4.455279e-01, -2.158000e+02)
+(  9.700000e+08gHz, -4.455279e-01, -2.161000e+02)
+(  9.750000e+08gHz, -4.455279e-01, -2.163000e+02)
+(  9.800000e+08gHz, -2.645653e-01, -2.168000e+02)
+(  9.850000e+08gHz, -3.545753e-01, -2.169000e+02)
+(  9.900000e+08gHz, -4.455279e-01, -2.171000e+02)
+(  9.950000e+08gHz, -4.455279e-01, -2.172000e+02)
+(  1.000000e+09gHz, -4.455279e-01, -2.173000e+02)

*S12 FREQ DB PHASE
E12 12 3 FREQ {V(20,3)}=
+(  5.000000e+06gHz, -3.045757e+01,  5.790000e+01)
+(  1.000000e+07gHz, -2.602060e+01,  3.680000e+01)
+(  1.500000e+07gHz, -2.443697e+01,  2.350000e+01)
+(  2.000000e+07gHz, -2.443697e+01,  1.500000e+01)
+(  2.500000e+07gHz, -2.443697e+01,  8.500000e+00)
+(  3.000000e+07gHz, -2.443697e+01,  3.300000e+00)
+(  3.500000e+07gHz, -2.443697e+01, -9.000000e-01)
+(  4.000000e+07gHz, -2.443697e+01, -4.400000e+00)
+(  4.500000e+07gHz, -2.443697e+01, -7.400000e+00)
+(  5.000000e+07gHz, -2.443697e+01, -1.020000e+01)
+(  5.500000e+07gHz, -2.602060e+01, -1.260000e+01)
+(  6.000000e+07gHz, -2.602060e+01, -1.480000e+01)
+(  6.500000e+07gHz, -2.602060e+01, -1.670000e+01)
+(  7.000000e+07gHz, -2.602060e+01, -1.840000e+01)
+(  7.500000e+07gHz, -2.602060e+01, -1.990000e+01)
+(  8.000000e+07gHz, -2.602060e+01, -2.130000e+01)
+(  8.500000e+07gHz, -2.795880e+01, -2.260000e+01)
+(  9.000000e+07gHz, -2.795880e+01, -2.380000e+01)
+(  9.500000e+07gHz, -2.795880e+01, -2.490000e+01)
+(  1.000000e+08gHz, -2.795880e+01, -2.590000e+01)
+(  1.050000e+08gHz, -2.795880e+01, -2.680000e+01)
+(  1.100000e+08gHz, -3.045757e+01, -2.740000e+01)
+(  1.150000e+08gHz, -3.045757e+01, -2.780000e+01)
+(  1.200000e+08gHz, -3.045757e+01, -2.800000e+01)
+(  1.250000e+08gHz, -3.045757e+01, -2.800000e+01)
+(  1.300000e+08gHz, -3.045757e+01, -2.760000e+01)
+(  1.350000e+08gHz, -3.045757e+01, -2.700000e+01)
+(  1.400000e+08gHz, -3.397940e+01, -2.610000e+01)
+(  1.450000e+08gHz, -3.397940e+01, -2.480000e+01)
+(  1.500000e+08gHz, -3.397940e+01, -2.330000e+01)
+(  1.550000e+08gHz, -3.397940e+01, -2.120000e+01)
+(  1.600000e+08gHz, -3.397940e+01, -1.890000e+01)
+(  1.650000e+08gHz, -3.397940e+01, -1.600000e+01)
+(  1.700000e+08gHz, -3.397940e+01, -1.250000e+01)
+(  1.750000e+08gHz, -4.000000e+01, -8.400000e+00)
+(  1.800000e+08gHz, -4.000000e+01, -3.500000e+00)
+(  1.850000e+08gHz, -4.000000e+01,  2.100000e+00)
+(  1.900000e+08gHz, -4.000000e+01,  8.400000e+00)
+(  1.950000e+08gHz, -4.000000e+01,  1.520000e+01)
+(  2.000000e+08gHz, -4.000000e+01,  2.240000e+01)
+(  2.050000e+08gHz, -4.000000e+01,  2.970000e+01)
+(  2.100000e+08gHz, -4.000000e+01,  3.670000e+01)
+(  2.150000e+08gHz, -4.000000e+01,  4.330000e+01)
+(  2.200000e+08gHz, -4.000000e+01,  4.920000e+01)
+(  2.250000e+08gHz, -4.000000e+01,  5.450000e+01)
+(  2.300000e+08gHz, -4.000000e+01,  5.910000e+01)
+(  2.350000e+08gHz, -4.000000e+01,  6.320000e+01)
+(  2.400000e+08gHz, -3.397940e+01,  6.660000e+01)
+(  2.450000e+08gHz, -3.397940e+01,  6.960000e+01)
+(  2.500000e+08gHz, -3.397940e+01,  7.210000e+01)
+(  2.550000e+08gHz, -3.397940e+01,  7.430000e+01)
+(  2.600000e+08gHz, -3.397940e+01,  7.610000e+01)
+(  2.650000e+08gHz, -3.397940e+01,  7.770000e+01)
+(  2.700000e+08gHz, -3.397940e+01,  7.900000e+01)
+(  2.750000e+08gHz, -3.397940e+01,  8.000000e+01)
+(  2.800000e+08gHz, -3.045757e+01,  8.080000e+01)
+(  2.850000e+08gHz, -3.045757e+01,  8.150000e+01)
+(  2.900000e+08gHz, -3.045757e+01,  8.210000e+01)
+(  2.950000e+08gHz, -3.045757e+01,  8.260000e+01)
+(  3.000000e+08gHz, -3.045757e+01,  8.300000e+01)
+(  3.050000e+08gHz, -3.045757e+01,  8.340000e+01)
+(  3.100000e+08gHz, -3.045757e+01,  8.380000e+01)
+(  3.150000e+08gHz, -3.045757e+01,  8.410000e+01)
+(  3.200000e+08gHz, -3.045757e+01,  8.450000e+01)
+(  3.250000e+08gHz, -2.795880e+01,  8.480000e+01)
+(  3.300000e+08gHz, -2.795880e+01,  8.510000e+01)
+(  3.350000e+08gHz, -2.795880e+01,  8.540000e+01)
+(  3.400000e+08gHz, -2.795880e+01,  8.570000e+01)
+(  3.450000e+08gHz, -2.795880e+01,  8.590000e+01)
+(  3.500000e+08gHz, -2.795880e+01,  8.610000e+01)
+(  3.550000e+08gHz, -2.795880e+01,  8.630000e+01)
+(  3.600000e+08gHz, -2.795880e+01,  8.640000e+01)
+(  3.650000e+08gHz, -2.602060e+01,  8.650000e+01)
+(  3.700000e+08gHz, -2.602060e+01,  8.660000e+01)
+(  3.750000e+08gHz, -2.602060e+01,  8.660000e+01)
+(  3.800000e+08gHz, -2.602060e+01,  8.660000e+01)
+(  3.850000e+08gHz, -2.602060e+01,  8.650000e+01)
+(  3.900000e+08gHz, -2.602060e+01,  8.640000e+01)
+(  3.950000e+08gHz, -2.602060e+01,  8.620000e+01)
+(  4.000000e+08gHz, -2.602060e+01,  8.610000e+01)
+(  4.050000e+08gHz, -2.602060e+01,  8.600000e+01)
+(  4.100000e+08gHz, -2.443697e+01,  8.590000e+01)
+(  4.150000e+08gHz, -2.443697e+01,  8.580000e+01)
+(  4.200000e+08gHz, -2.443697e+01,  8.580000e+01)
+(  4.250000e+08gHz, -2.443697e+01,  8.570000e+01)
+(  4.300000e+08gHz, -2.443697e+01,  8.580000e+01)
+(  4.350000e+08gHz, -2.443697e+01,  8.590000e+01)
+(  4.400000e+08gHz, -2.443697e+01,  8.600000e+01)
+(  4.450000e+08gHz, -2.443697e+01,  8.610000e+01)
+(  4.500000e+08gHz, -2.443697e+01,  8.620000e+01)
+(  4.550000e+08gHz, -2.443697e+01,  8.620000e+01)
+(  4.600000e+08gHz, -2.309804e+01,  8.620000e+01)
+(  4.650000e+08gHz, -2.309804e+01,  8.620000e+01)
+(  4.700000e+08gHz, -2.309804e+01,  8.610000e+01)
+(  4.750000e+08gHz, -2.309804e+01,  8.590000e+01)
+(  4.800000e+08gHz, -2.309804e+01,  8.560000e+01)
+(  4.850000e+08gHz, -2.309804e+01,  8.530000e+01)
+(  4.900000e+08gHz, -2.309804e+01,  8.510000e+01)
+(  4.950000e+08gHz, -2.309804e+01,  8.480000e+01)
+(  5.000000e+08gHz, -2.193820e+01,  8.470000e+01)
+(  5.050000e+08gHz, -2.193820e+01,  8.450000e+01)
+(  5.100000e+08gHz, -2.193820e+01,  8.450000e+01)
+(  5.150000e+08gHz, -2.193820e+01,  8.440000e+01)
+(  5.200000e+08gHz, -2.193820e+01,  8.450000e+01)
+(  5.250000e+08gHz, -2.193820e+01,  8.450000e+01)
+(  5.300000e+08gHz, -2.193820e+01,  8.460000e+01)
+(  5.350000e+08gHz, -2.193820e+01,  8.460000e+01)
+(  5.400000e+08gHz, -2.193820e+01,  8.460000e+01)
+(  5.450000e+08gHz, -2.193820e+01,  8.460000e+01)
+(  5.500000e+08gHz, -2.091515e+01,  8.460000e+01)
+(  5.550000e+08gHz, -2.091515e+01,  8.450000e+01)
+(  5.600000e+08gHz, -2.091515e+01,  8.440000e+01)
+(  5.650000e+08gHz, -2.091515e+01,  8.410000e+01)
+(  5.700000e+08gHz, -2.091515e+01,  8.390000e+01)
+(  5.750000e+08gHz, -2.091515e+01,  8.370000e+01)
+(  5.800000e+08gHz, -2.091515e+01,  8.340000e+01)
+(  5.850000e+08gHz, -2.091515e+01,  8.310000e+01)
+(  5.900000e+08gHz, -2.091515e+01,  8.280000e+01)
+(  5.950000e+08gHz, -2.000000e+01,  8.270000e+01)
+(  6.000000e+08gHz, -2.000000e+01,  8.260000e+01)
+(  6.050000e+08gHz, -2.000000e+01,  8.250000e+01)
+(  6.100000e+08gHz, -2.000000e+01,  8.240000e+01)
+(  6.150000e+08gHz, -2.000000e+01,  8.250000e+01)
+(  6.200000e+08gHz, -2.000000e+01,  8.260000e+01)
+(  6.250000e+08gHz, -2.000000e+01,  8.270000e+01)
+(  6.300000e+08gHz, -2.000000e+01,  8.290000e+01)
+(  6.350000e+08gHz, -2.000000e+01,  8.300000e+01)
+(  6.400000e+08gHz, -2.000000e+01,  8.310000e+01)
+(  6.450000e+08gHz, -1.917215e+01,  8.310000e+01)
+(  6.500000e+08gHz, -1.917215e+01,  8.290000e+01)
+(  6.550000e+08gHz, -1.917215e+01,  8.270000e+01)
+(  6.600000e+08gHz, -1.917215e+01,  8.230000e+01)
+(  6.650000e+08gHz, -1.917215e+01,  8.190000e+01)
+(  6.700000e+08gHz, -1.917215e+01,  8.140000e+01)
+(  6.750000e+08gHz, -1.917215e+01,  8.090000e+01)
+(  6.800000e+08gHz, -1.917215e+01,  8.050000e+01)
+(  6.850000e+08gHz, -1.917215e+01,  8.020000e+01)
+(  6.900000e+08gHz, -1.917215e+01,  8.010000e+01)
+(  6.950000e+08gHz, -1.841638e+01,  8.000000e+01)
+(  7.000000e+08gHz, -1.841638e+01,  8.000000e+01)
+(  7.050000e+08gHz, -1.841638e+01,  8.020000e+01)
+(  7.100000e+08gHz, -1.841638e+01,  8.040000e+01)
+(  7.150000e+08gHz, -1.841638e+01,  8.060000e+01)
+(  7.200000e+08gHz, -1.841638e+01,  8.090000e+01)
+(  7.250000e+08gHz, -1.841638e+01,  8.120000e+01)
+(  7.300000e+08gHz, -1.841638e+01,  8.130000e+01)
+(  7.350000e+08gHz, -1.841638e+01,  8.130000e+01)
+(  7.400000e+08gHz, -1.772113e+01,  8.120000e+01)
+(  7.450000e+08gHz, -1.772113e+01,  8.100000e+01)
+(  7.500000e+08gHz, -1.772113e+01,  8.060000e+01)
+(  7.550000e+08gHz, -1.772113e+01,  8.020000e+01)
+(  7.600000e+08gHz, -1.772113e+01,  7.970000e+01)
+(  7.650000e+08gHz, -1.772113e+01,  7.920000e+01)
+(  7.700000e+08gHz, -1.772113e+01,  7.880000e+01)
+(  7.750000e+08gHz, -1.772113e+01,  7.840000e+01)
+(  7.800000e+08gHz, -1.772113e+01,  7.810000e+01)
+(  7.850000e+08gHz, -1.772113e+01,  7.790000e+01)
+(  7.900000e+08gHz, -1.772113e+01,  7.770000e+01)
+(  7.950000e+08gHz, -1.772113e+01,  7.780000e+01)
+(  8.000000e+08gHz, -1.772113e+01,  7.790000e+01)
+(  8.050000e+08gHz, -1.772113e+01,  7.820000e+01)
+(  8.100000e+08gHz, -1.772113e+01,  7.850000e+01)
+(  8.150000e+08gHz, -1.772113e+01,  7.890000e+01)
+(  8.200000e+08gHz, -1.707744e+01,  7.930000e+01)
+(  8.250000e+08gHz, -1.707744e+01,  7.970000e+01)
+(  8.300000e+08gHz, -1.707744e+01,  8.010000e+01)
+(  8.350000e+08gHz, -1.707744e+01,  8.020000e+01)
+(  8.400000e+08gHz, -1.707744e+01,  8.030000e+01)
+(  8.450000e+08gHz, -1.647817e+01,  8.010000e+01)
+(  8.500000e+08gHz, -1.647817e+01,  7.980000e+01)
+(  8.550000e+08gHz, -1.647817e+01,  7.940000e+01)
+(  8.600000e+08gHz, -1.647817e+01,  7.880000e+01)
+(  8.650000e+08gHz, -1.647817e+01,  7.820000e+01)
+(  8.700000e+08gHz, -1.647817e+01,  7.750000e+01)
+(  8.750000e+08gHz, -1.647817e+01,  7.700000e+01)
+(  8.800000e+08gHz, -1.647817e+01,  7.650000e+01)
+(  8.850000e+08gHz, -1.647817e+01,  7.610000e+01)
+(  8.900000e+08gHz, -1.647817e+01,  7.580000e+01)
+(  8.950000e+08gHz, -1.647817e+01,  7.490000e+01)
+(  9.000000e+08gHz, -1.647817e+01,  7.440000e+01)
+(  9.050000e+08gHz, -1.647817e+01,  7.480000e+01)
+(  9.100000e+08gHz, -1.647817e+01,  7.480000e+01)
+(  9.150000e+08gHz, -1.647817e+01,  7.520000e+01)
+(  9.200000e+08gHz, -1.647817e+01,  7.560000e+01)
+(  9.250000e+08gHz, -1.591760e+01,  7.600000e+01)
+(  9.300000e+08gHz, -1.591760e+01,  7.640000e+01)
+(  9.350000e+08gHz, -1.591760e+01,  7.660000e+01)
+(  9.400000e+08gHz, -1.591760e+01,  7.630000e+01)
+(  9.450000e+08gHz, -1.591760e+01,  7.300000e+01)
+(  9.500000e+08gHz, -1.591760e+01,  7.410000e+01)
+(  9.550000e+08gHz, -1.647817e+01,  7.330000e+01)
+(  9.600000e+08gHz, -1.647817e+01,  2.178000e+02)
+(  9.650000e+08gHz, -1.647817e+01,  7.490000e+01)
+(  9.700000e+08gHz, -1.707744e+01,  7.020000e+01)
+(  9.750000e+08gHz, -1.841638e+01,  6.960000e+01)
+(  9.800000e+08gHz,  7.923987e+00,  3.990000e+01)
+(  9.850000e+08gHz,  4.910253e+00,  4.160000e+01)
+(  9.900000e+08gHz,  4.810985e+00,  4.110000e+01)
+(  9.950000e+08gHz,  4.710569e+00,  4.080000e+01)
+(  1.000000e+09gHz,  4.608978e+00,  4.050000e+01)

*S21 FREQ DB PHASE
E21 21 22 FREQ {V(10,3)}=
+(  5.000000e+06gHz,  2.820542e+01,  1.471000e+02)
+(  1.000000e+07gHz,  2.576946e+01,  1.258000e+02)
+(  1.500000e+07gHz,  2.346373e+01,  1.120000e+02)
+(  2.000000e+07gHz,  2.143028e+01,  1.024000e+02)
+(  2.500000e+07gHz,  1.964542e+01,  9.530000e+01)
+(  3.000000e+07gHz,  1.810512e+01,  8.970000e+01)
+(  3.500000e+07gHz,  1.673913e+01,  8.490000e+01)
+(  4.000000e+07gHz,  1.551949e+01,  8.080000e+01)
+(  4.500000e+07gHz,  1.440319e+01,  7.700000e+01)
+(  5.000000e+07gHz,  1.338634e+01,  7.360000e+01)
+(  5.500000e+07gHz,  1.240272e+01,  7.040000e+01)
+(  6.000000e+07gHz,  1.150376e+01,  6.750000e+01)
+(  6.500000e+07gHz,  1.065509e+01,  6.480000e+01)
+(  7.000000e+07gHz,  9.827234e+00,  6.240000e+01)
+(  7.500000e+07gHz,  9.066367e+00,  6.010000e+01)
+(  8.000000e+07gHz,  8.332810e+00,  5.790000e+01)
+(  8.500000e+07gHz,  7.676307e+00,  5.580000e+01)
+(  9.000000e+07gHz,  7.004960e+00,  5.370000e+01)
+(  9.500000e+07gHz,  6.361267e+00,  5.170000e+01)
+(  1.000000e+08gHz,  5.756035e+00,  4.980000e+01)
+(  1.050000e+08gHz,  5.153571e+00,  4.780000e+01)
+(  1.100000e+08gHz,  4.557734e+00,  4.600000e+01)
+(  1.150000e+08gHz,  3.973142e+00,  4.430000e+01)
+(  1.200000e+08gHz,  3.405234e+00,  4.270000e+01)
+(  1.250000e+08gHz,  2.860296e+00,  4.120000e+01)
+(  1.300000e+08gHz,  2.345426e+00,  3.990000e+01)
+(  1.350000e+08gHz,  1.798102e+00,  3.870000e+01)
+(  1.400000e+08gHz,  1.289160e+00,  3.750000e+01)
+(  1.450000e+08gHz,  8.278537e-01,  3.640000e+01)
+(  1.500000e+08gHz,  3.406668e-01,  3.540000e+01)
+(  1.550000e+08gHz, -8.729611e-02,  3.440000e+01)
+(  1.600000e+08gHz, -5.374429e-01,  3.350000e+01)
+(  1.650000e+08gHz, -1.012200e+00,  3.260000e+01)
+(  1.700000e+08gHz, -1.411621e+00,  3.170000e+01)
+(  1.750000e+08gHz, -1.830300e+00,  3.080000e+01)
+(  1.800000e+08gHz, -2.158108e+00,  2.990000e+01)
+(  1.850000e+08gHz, -2.615366e+00,  2.910000e+01)
+(  1.900000e+08gHz, -2.974833e+00,  2.820000e+01)
+(  1.950000e+08gHz, -3.349822e+00,  2.740000e+01)
+(  2.000000e+08gHz, -3.741733e+00,  2.660000e+01)
+(  2.050000e+08gHz, -4.013189e+00,  2.580000e+01)
+(  2.100000e+08gHz, -4.436975e+00,  2.510000e+01)
+(  2.150000e+08gHz, -4.882503e+00,  2.450000e+01)
+(  2.200000e+08gHz, -5.192746e+00,  2.380000e+01)
+(  2.250000e+08gHz, -5.514483e+00,  2.330000e+01)
+(  2.300000e+08gHz, -5.848596e+00,  2.290000e+01)
+(  2.350000e+08gHz, -6.196078e+00,  2.250000e+01)
+(  2.400000e+08gHz, -6.558043e+00,  2.220000e+01)
+(  2.450000e+08gHz, -6.935750e+00,  2.190000e+01)
+(  2.500000e+08gHz, -7.130946e+00,  2.160000e+01)
+(  2.550000e+08gHz, -7.535014e+00,  2.140000e+01)
+(  2.600000e+08gHz, -7.744323e+00,  2.110000e+01)
+(  2.650000e+08gHz, -7.958800e+00,  2.090000e+01)
+(  2.700000e+08gHz, -8.404328e+00,  2.060000e+01)
+(  2.750000e+08gHz, -8.635966e+00,  2.040000e+01)
+(  2.800000e+08gHz, -8.873950e+00,  2.010000e+01)
+(  2.850000e+08gHz, -9.118639e+00,  1.990000e+01)
+(  2.900000e+08gHz, -9.370422e+00,  1.960000e+01)
+(  2.950000e+08gHz, -9.629721e+00,  1.940000e+01)
+(  3.000000e+08gHz, -9.897000e+00,  1.920000e+01)
+(  3.050000e+08gHz, -1.017277e+01,  1.900000e+01)
+(  3.100000e+08gHz, -1.045757e+01,  1.900000e+01)
+(  3.150000e+08gHz, -1.075204e+01,  1.890000e+01)
+(  3.200000e+08gHz, -1.105684e+01,  1.900000e+01)
+(  3.250000e+08gHz, -1.105684e+01,  1.900000e+01)
+(  3.300000e+08gHz, -1.137272e+01,  1.910000e+01)
+(  3.350000e+08gHz, -1.170053e+01,  1.920000e+01)
+(  3.400000e+08gHz, -1.204120e+01,  1.940000e+01)
+(  3.450000e+08gHz, -1.204120e+01,  1.950000e+01)
+(  3.500000e+08gHz, -1.239578e+01,  1.970000e+01)
+(  3.550000e+08gHz, -1.239578e+01,  1.980000e+01)
+(  3.600000e+08gHz, -1.276544e+01,  2.000000e+01)
+(  3.650000e+08gHz, -1.276544e+01,  2.020000e+01)
+(  3.700000e+08gHz, -1.315155e+01,  2.040000e+01)
+(  3.750000e+08gHz, -1.315155e+01,  2.060000e+01)
+(  3.800000e+08gHz, -1.355561e+01,  2.080000e+01)
+(  3.850000e+08gHz, -1.355561e+01,  2.120000e+01)
+(  3.900000e+08gHz, -1.397940e+01,  2.150000e+01)
+(  3.950000e+08gHz, -1.397940e+01,  2.170000e+01)
+(  4.000000e+08gHz, -1.442493e+01,  2.210000e+01)
+(  4.050000e+08gHz, -1.442493e+01,  2.230000e+01)
+(  4.100000e+08gHz, -1.442493e+01,  2.260000e+01)
+(  4.150000e+08gHz, -1.489455e+01,  2.300000e+01)
+(  4.200000e+08gHz, -1.489455e+01,  2.340000e+01)
+(  4.250000e+08gHz, -1.489455e+01,  2.370000e+01)
+(  4.300000e+08gHz, -1.539102e+01,  2.420000e+01)
+(  4.350000e+08gHz, -1.539102e+01,  2.460000e+01)
+(  4.400000e+08gHz, -1.539102e+01,  2.510000e+01)
+(  4.450000e+08gHz, -1.591760e+01,  2.560000e+01)
+(  4.500000e+08gHz, -1.591760e+01,  2.610000e+01)
+(  4.550000e+08gHz, -1.591760e+01,  2.660000e+01)
+(  4.600000e+08gHz, -1.591760e+01,  2.720000e+01)
+(  4.650000e+08gHz, -1.591760e+01,  2.780000e+01)
+(  4.700000e+08gHz, -1.647817e+01,  2.840000e+01)
+(  4.750000e+08gHz, -1.647817e+01,  2.890000e+01)
+(  4.800000e+08gHz, -1.647817e+01,  2.950000e+01)
+(  4.850000e+08gHz, -1.647817e+01,  3.020000e+01)
+(  4.900000e+08gHz, -1.647817e+01,  3.060000e+01)
+(  4.950000e+08gHz, -1.647817e+01,  3.110000e+01)
+(  5.000000e+08gHz, -1.707744e+01,  3.160000e+01)
+(  5.050000e+08gHz, -1.707744e+01,  3.220000e+01)
+(  5.100000e+08gHz, -1.707744e+01,  3.270000e+01)
+(  5.150000e+08gHz, -1.707744e+01,  3.330000e+01)
+(  5.200000e+08gHz, -1.707744e+01,  3.390000e+01)
+(  5.250000e+08gHz, -1.707744e+01,  3.450000e+01)
+(  5.300000e+08gHz, -1.707744e+01,  3.510000e+01)
+(  5.350000e+08gHz, -1.707744e+01,  3.580000e+01)
+(  5.400000e+08gHz, -1.772113e+01,  3.640000e+01)
+(  5.450000e+08gHz, -1.772113e+01,  3.710000e+01)
+(  5.500000e+08gHz, -1.772113e+01,  3.780000e+01)
+(  5.550000e+08gHz, -1.772113e+01,  3.830000e+01)
+(  5.600000e+08gHz, -1.772113e+01,  3.910000e+01)
+(  5.650000e+08gHz, -1.772113e+01,  3.960000e+01)
+(  5.700000e+08gHz, -1.772113e+01,  4.060000e+01)
+(  5.750000e+08gHz, -1.772113e+01,  4.090000e+01)
+(  5.800000e+08gHz, -1.772113e+01,  4.150000e+01)
+(  5.850000e+08gHz, -1.772113e+01,  4.210000e+01)
+(  5.900000e+08gHz, -1.772113e+01,  4.270000e+01)
+(  5.950000e+08gHz, -1.772113e+01,  4.310000e+01)
+(  6.000000e+08gHz, -1.772113e+01,  4.350000e+01)
+(  6.050000e+08gHz, -1.772113e+01,  4.420000e+01)
+(  6.100000e+08gHz, -1.772113e+01,  4.470000e+01)
+(  6.150000e+08gHz, -1.772113e+01,  4.490000e+01)
+(  6.200000e+08gHz, -1.772113e+01,  4.550000e+01)
+(  6.250000e+08gHz, -1.772113e+01,  4.600000e+01)
+(  6.300000e+08gHz, -1.772113e+01,  4.660000e+01)
+(  6.350000e+08gHz, -1.772113e+01,  4.730000e+01)
+(  6.400000e+08gHz, -1.772113e+01,  4.790000e+01)
+(  6.450000e+08gHz, -1.772113e+01,  4.860000e+01)
+(  6.500000e+08gHz, -1.772113e+01,  4.950000e+01)
+(  6.550000e+08gHz, -1.772113e+01,  5.010000e+01)
+(  6.600000e+08gHz, -1.772113e+01,  5.080000e+01)
+(  6.650000e+08gHz, -1.772113e+01,  5.140000e+01)
+(  6.700000e+08gHz, -1.772113e+01,  5.180000e+01)
+(  6.750000e+08gHz, -1.772113e+01,  5.210000e+01)
+(  6.800000e+08gHz, -1.772113e+01,  5.230000e+01)
+(  6.850000e+08gHz, -1.772113e+01,  5.250000e+01)
+(  6.900000e+08gHz, -1.772113e+01,  5.270000e+01)
+(  6.950000e+08gHz, -1.772113e+01,  5.280000e+01)
+(  7.000000e+08gHz, -1.772113e+01,  5.290000e+01)
+(  7.050000e+08gHz, -1.772113e+01,  5.310000e+01)
+(  7.100000e+08gHz, -1.772113e+01,  5.340000e+01)
+(  7.150000e+08gHz, -1.772113e+01,  5.390000e+01)
+(  7.200000e+08gHz, -1.772113e+01,  5.420000e+01)
+(  7.250000e+08gHz, -1.772113e+01,  5.480000e+01)
+(  7.300000e+08gHz, -1.772113e+01,  5.530000e+01)
+(  7.350000e+08gHz, -1.772113e+01,  5.590000e+01)
+(  7.400000e+08gHz, -1.772113e+01,  5.650000e+01)
+(  7.450000e+08gHz, -1.772113e+01,  5.710000e+01)
+(  7.500000e+08gHz, -1.772113e+01,  5.770000e+01)
+(  7.550000e+08gHz, -1.707744e+01,  5.800000e+01)
+(  7.600000e+08gHz, -1.707744e+01,  5.850000e+01)
+(  7.650000e+08gHz, -1.707744e+01,  5.880000e+01)
+(  7.700000e+08gHz, -1.707744e+01,  5.880000e+01)
+(  7.750000e+08gHz, -1.707744e+01,  5.900000e+01)
+(  7.800000e+08gHz, -1.707744e+01,  5.910000e+01)
+(  7.850000e+08gHz, -1.707744e+01,  5.900000e+01)
+(  7.900000e+08gHz, -1.707744e+01,  5.900000e+01)
+(  7.950000e+08gHz, -1.707744e+01,  5.890000e+01)
+(  8.000000e+08gHz, -1.707744e+01,  5.890000e+01)
+(  8.050000e+08gHz, -1.707744e+01,  5.910000e+01)
+(  8.100000e+08gHz, -1.707744e+01,  5.930000e+01)
+(  8.150000e+08gHz, -1.707744e+01,  5.960000e+01)
+(  8.200000e+08gHz, -1.707744e+01,  5.990000e+01)
+(  8.250000e+08gHz, -1.707744e+01,  6.050000e+01)
+(  8.300000e+08gHz, -1.707744e+01,  6.100000e+01)
+(  8.350000e+08gHz, -1.707744e+01,  6.160000e+01)
+(  8.400000e+08gHz, -1.707744e+01,  6.220000e+01)
+(  8.450000e+08gHz, -1.647817e+01,  6.290000e+01)
+(  8.500000e+08gHz, -1.647817e+01,  6.350000e+01)
+(  8.550000e+08gHz, -1.647817e+01,  6.410000e+01)
+(  8.600000e+08gHz, -1.647817e+01,  6.450000e+01)
+(  8.650000e+08gHz, -1.647817e+01,  6.470000e+01)
+(  8.700000e+08gHz, -1.591760e+01,  6.470000e+01)
+(  8.750000e+08gHz, -1.591760e+01,  6.460000e+01)
+(  8.800000e+08gHz, -1.591760e+01,  6.440000e+01)
+(  8.850000e+08gHz, -1.591760e+01,  6.410000e+01)
+(  8.900000e+08gHz, -1.591760e+01,  6.370000e+01)
+(  8.950000e+08gHz, -1.591760e+01,  6.340000e+01)
+(  9.000000e+08gHz, -1.591760e+01,  6.310000e+01)
+(  9.050000e+08gHz, -1.591760e+01,  6.300000e+01)
+(  9.100000e+08gHz, -1.591760e+01,  6.320000e+01)