Version 4
SHEET 1 1696 680
WIRE 672 -80 608 -80
WIRE 720 -80 672 -80
WIRE 752 -80 720 -80
WIRE 880 -80 832 -80
WIRE 256 -16 256 -48
WIRE 656 0 608 0
WIRE 672 0 672 -80
WIRE 608 32 608 0
WIRE 720 64 720 -80
WIRE 752 64 720 64
WIRE 864 80 816 80
WIRE 256 96 256 64
WIRE 256 96 144 96
WIRE 368 96 256 96
WIRE 560 112 432 112
WIRE 368 128 144 128
WIRE 752 128 720 128
WIRE 864 144 864 80
WIRE 896 144 864 144
WIRE 1184 144 992 144
WIRE 256 160 256 96
WIRE 400 160 400 144
WIRE 768 160 768 128
WIRE 560 176 560 112
WIRE 576 176 560 176
WIRE 672 176 672 64
WIRE 752 176 672 176
WIRE 752 192 640 192
WIRE 896 192 816 192
WIRE 1056 192 1008 192
WIRE 480 240 464 240
WIRE 576 240 544 240
WIRE 896 256 896 224
WIRE 592 272 592 240
WIRE 768 272 768 240
WIRE 368 288 144 288
WIRE 480 288 480 256
WIRE 464 304 464 240
WIRE 464 304 432 304
WIRE 720 304 720 128
WIRE 720 304 464 304
WIRE 1056 304 1056 272
WIRE 256 320 256 240
WIRE 368 320 256 320
WIRE 400 352 400 336
WIRE 256 368 256 320
WIRE 1008 368 976 368
WIRE 1184 368 1104 368
WIRE 976 400 976 368
WIRE 496 432 464 432
WIRE 256 480 256 448
WIRE 464 480 464 432
FLAG 256 480 COM
FLAG 976 400 COM
FLAG 400 160 COM
FLAG 400 352 COM
FLAG 400 80 VCC
FLAG 400 272 VCC
FLAG 144 96 CV
IOPIN 144 96 BiDir
FLAG 144 128 THRS
IOPIN 144 128 In
FLAG 144 288 TRIG
IOPIN 144 288 In
FLAG 256 -48 VCC
IOPIN 256 -48 BiDir
FLAG 1184 144 OUT
IOPIN 1184 144 Out
FLAG 1184 368 DIS
IOPIN 1184 368 BiDir
FLAG 608 -80 RST
IOPIN 608 -80 In
FLAG 608 32 COM
FLAG 768 160 COM
FLAG 768 272 COM
FLAG 592 272 COM
FLAG 480 288 COM
FLAG 896 256 COM
FLAG 464 480 COM
FLAG 496 432 GND
IOPIN 496 432 BiDir
FLAG 880 -80 VCC
IOPIN 880 -80 BiDir
SYMBOL Opamps\\UniversalOpamp2 400 112 R0
SYMATTR InstName U1
SYMBOL Opamps\\UniversalOpamp2 400 304 R0
SYMATTR InstName U2
SYMBOL Digital\\srflop 944 96 R0
WINDOW 3 -40 28 Invisible 2
SYMATTR Value Vhigh={VCC}
SYMATTR InstName A1
SYMBOL npn 1104 304 R90
WINDOW 3 56 68 Invisible 2
SYMATTR InstName Q1
SYMBOL res 1040 176 R0
SYMATTR InstName R4
SYMATTR Value 1k
SYMBOL res 240 -32 R0
SYMATTR InstName R1
SYMATTR Value 5k
SYMBOL res 240 144 R0
SYMATTR InstName R2
SYMATTR Value 5k
SYMBOL res 240 352 R0
SYMATTR InstName R3
SYMATTR Value 5k
SYMBOL Digital\\inv 736 0 R90
WINDOW 3 8 104 Invisible 2
SYMATTR Value Vhigh={VCC}
SYMATTR InstName A2
SYMBOL Digital\\or 784 144 R0
WINDOW 0 6 21 Left 2
WINDOW 3 -8 128 Invisible 2
SYMATTR InstName A3
SYMATTR Value Vhigh={VCC}
SYMBOL Digital\\and 784 32 R0
WINDOW 3 0 0 Invisible 2
SYMATTR Value Vhigh={VCC}
SYMATTR InstName A4
SYMBOL Digital\\and 608 144 R0
WINDOW 3 0 0 Invisible 2
SYMATTR Value Vhigh={VCC}
SYMATTR InstName A5
SYMBOL Digital\\inv 480 176 R0
WINDOW 3 8 104 Invisible 2
SYMATTR Value Vhigh={VCC}
SYMATTR InstName A6
SYMBOL res 848 -96 R90
WINDOW 0 0 56 VBottom 2
WINDOW 3 32 56 VTop 2
SYMATTR InstName R5
SYMATTR Value 10k
TEXT 896 24 Left 2 !.param VCC 5
