Version 4
SHEET 1 1708 680
WIRE 704 -160 608 -160
WIRE 752 -160 704 -160
WIRE 880 -160 832 -160
WIRE 672 -112 640 -112
WIRE 672 -80 672 -112
WIRE 704 -80 704 -160
WIRE 256 -48 256 -80
WIRE 704 64 704 -16
WIRE 752 64 704 64
WIRE 864 80 816 80
WIRE 368 96 144 96
WIRE 560 112 432 112
WIRE 256 128 256 32
WIRE 256 128 144 128
WIRE 368 128 256 128
WIRE 752 128 720 128
WIRE 864 144 864 80
WIRE 896 144 864 144
WIRE 1088 144 992 144
WIRE 1328 144 1152 144
WIRE 256 160 256 128
WIRE 560 176 560 112
WIRE 576 176 560 176
WIRE 672 176 672 -16
WIRE 752 176 672 176
WIRE 1088 176 1056 176
WIRE 1200 176 1152 176
WIRE 752 192 640 192
WIRE 896 192 816 192
WIRE 1056 192 1056 176
WIRE 1088 224 1088 192
WIRE 480 240 464 240
WIRE 576 240 544 240
WIRE 1200 256 1200 176
WIRE 256 288 256 240
WIRE 368 288 256 288
WIRE 464 304 464 240
WIRE 464 304 432 304
WIRE 720 304 720 128
WIRE 720 304 464 304
WIRE 368 320 144 320
WIRE 1200 352 1200 336
WIRE 256 368 256 288
WIRE 1152 416 1120 416
WIRE 1264 416 1248 416
WIRE 496 432 464 432
WIRE 1120 448 1120 416
WIRE 256 480 256 448
WIRE 464 480 464 432
FLAG 256 480 COM
FLAG 1120 448 COM
FLAG 144 128 CV
IOPIN 144 128 BiDir
FLAG 144 96 THRS
IOPIN 144 96 In
FLAG 144 320 TRIG
IOPIN 144 320 In
FLAG 256 -80 VCC
IOPIN 256 -80 BiDir
FLAG 1264 416 DIS
IOPIN 1264 416 BiDir
FLAG 608 -160 RST
IOPIN 608 -160 In
FLAG 464 480 COM
FLAG 496 432 GND
IOPIN 496 432 BiDir
FLAG 880 -160 VCC
IOPIN 880 -160 BiDir
FLAG 1328 144 OUT
IOPIN 1328 144 BiDir
FLAG 1088 224 COM
FLAG 1056 192 0
FLAG 640 -112 COM
SYMBOL Digital\\srflop 944 96 R0
SYMATTR InstName A1
SYMBOL npn 1248 352 R90
WINDOW 3 56 68 Invisible 2
SYMATTR InstName Q1
SYMBOL res 1184 240 R0
SYMATTR InstName R4
SYMATTR Value 1k
SYMBOL res 240 -64 R0
SYMATTR InstName R1
SYMATTR Value 5k
SYMBOL res 240 144 R0
SYMATTR InstName R2
SYMATTR Value 5k
SYMBOL res 240 352 R0
SYMATTR InstName R3
SYMATTR Value 5k
SYMBOL Digital\\or 784 144 R0
WINDOW 0 6 21 Left 2
SYMATTR InstName A3
SYMBOL Digital\\and 784 32 R0
SYMATTR InstName A4
SYMBOL Digital\\and 608 144 R0
SYMATTR InstName A5
SYMBOL Digital\\inv 480 176 R0
SYMATTR InstName A6
SYMBOL res 848 -176 R90
WINDOW 0 0 56 VBottom 2
WINDOW 3 32 56 VTop 2
SYMATTR InstName R5
SYMATTR Value 10k
SYMBOL Digital\\diffschmtbuf 368 48 R0
WINDOW 3 8 44 Invisible 2
SYMATTR Value Vt=0 Td=1n
SYMATTR InstName A7
SYMBOL Digital\\diffschmtbuf 368 240 R0
WINDOW 3 8 44 Invisible 2
SYMATTR Value Vt=0 Td=1n
SYMATTR InstName A8
SYMBOL Digital\\diffschmitt 1088 96 R0
WINDOW 3 8 44 Invisible 2
SYMATTR Value Vhigh={Vhigh} Vt=0.5
SYMATTR InstName A9
SYMBOL Digital\\diffschmitt 752 -80 R90
SYMATTR InstName A10
