Version 4
SHEET 1 880 680
WIRE 112 144 80 144
WIRE 432 144 368 144
WIRE 240 288 240 240
FLAG 80 144 IN
IOPIN 80 144 In
FLAG 432 144 OUT
IOPIN 432 144 Out
FLAG 240 288 GND
IOPIN 240 288 BiDir
SYMBOL Vreg\\7805 240 144 R0
SYMATTR InstName U1
