Version 4
SHEET 1 880 680
WIRE 352 -112 272 -112
WIRE 512 -112 352 -112
WIRE 272 -96 272 -112
WIRE 352 -80 352 -112
WIRE -48 16 -96 16
WIRE 32 16 -48 16
WIRE 352 16 352 0
WIRE 272 32 272 -16
WIRE 272 32 192 32
WIRE 272 96 272 32
WIRE 304 96 272 96
WIRE -16 112 -96 112
WIRE 32 112 -16 112
WIRE 224 128 192 128
WIRE 224 176 224 128
WIRE 352 176 352 112
WIRE 352 176 224 176
WIRE 512 176 352 176
WIRE 224 224 224 176
WIRE 224 224 192 224
WIRE -16 240 -16 112
WIRE 32 240 -16 240
WIRE 352 240 352 176
WIRE 304 256 272 256
WIRE 272 320 272 256
WIRE 272 320 192 320
WIRE -48 336 -48 16
WIRE 32 336 -48 336
WIRE 272 368 272 320
WIRE 352 368 352 336
WIRE 272 464 272 448
WIRE 352 464 352 448
WIRE 352 464 272 464
WIRE 512 464 352 464
FLAG -96 16 +
IOPIN -96 16 In
FLAG -96 112 -
IOPIN -96 112 In
FLAG 512 -112 NO1
IOPIN 512 -112 Out
FLAG 512 464 NO2
IOPIN 512 464 Out
FLAG 512 176 DC
IOPIN 512 176 Out
SYMBOL nmos 304 16 R0
SYMATTR InstName M1
SYMATTR Value Si4488DY
SYMBOL nmos 304 336 M180
SYMATTR InstName M2
SYMATTR Value Si4488DY
SYMBOL res 336 -96 R0
SYMATTR InstName R1
SYMATTR Value 10
SYMBOL res 336 352 R0
SYMATTR InstName R2
SYMATTR Value 10
SYMBOL Gluisf\\optoNPN 160 32 R0
SYMATTR InstName U1
SYMBOL Gluisf\\optoNPN 160 320 M180
SYMATTR InstName U2
SYMBOL res 288 -112 M0
SYMATTR InstName R5
SYMATTR Value 500k
SYMBOL res 288 464 R180
WINDOW 0 36 76 Left 2
WINDOW 3 36 40 Left 2
SYMATTR InstName R6
SYMATTR Value 500k
