Version 4
SHEET 1 880 680
WIRE 352 -272 272 -272
WIRE 512 -272 352 -272
WIRE 272 -256 272 -272
WIRE 352 -240 352 -272
WIRE -48 -176 -96 -176
WIRE 32 -176 -48 -176
WIRE 272 -160 272 -176
WIRE 272 -160 192 -160
WIRE 352 -144 352 -160
WIRE -16 -80 -96 -80
WIRE 32 -80 -16 -80
WIRE 272 -64 192 -64
WIRE 304 -64 272 -64
WIRE 352 16 352 -48
WIRE 352 16 272 16
WIRE 512 16 352 16
WIRE 352 80 352 16
WIRE 272 96 192 96
WIRE 304 96 272 96
WIRE -16 112 -16 -80
WIRE 32 112 -16 112
WIRE 272 192 192 192
WIRE -48 208 -48 -176
WIRE 32 208 -48 208
WIRE 272 208 272 192
WIRE 352 208 352 176
WIRE 272 304 272 288
WIRE 352 304 352 288
WIRE 352 304 272 304
WIRE 512 304 352 304
FLAG -96 -176 +
IOPIN -96 -176 In
FLAG -96 -80 -
IOPIN -96 -80 In
FLAG 512 -272 NO1
IOPIN 512 -272 Out
FLAG 512 304 NO2
IOPIN 512 304 Out
FLAG 512 16 DC
IOPIN 512 16 Out
SYMBOL nmos 304 -144 R0
SYMATTR InstName M1
SYMATTR Value Si4488DY
SYMBOL nmos 304 176 M180
SYMATTR InstName M2
SYMATTR Value Si4488DY
SYMBOL res 336 -256 R0
SYMATTR InstName R1
SYMATTR Value 10
SYMBOL res 336 192 R0
SYMATTR InstName R2
SYMATTR Value 10
SYMBOL Gluisf\\optoNPN 160 -160 R0
SYMATTR InstName U1
SYMBOL Gluisf\\optoNPN 160 192 M180
SYMATTR InstName U2
SYMBOL res 288 -80 M0
SYMATTR InstName R3
SYMATTR Value 10k
SYMBOL res 288 112 R180
WINDOW 0 36 76 Left 2
WINDOW 3 36 40 Left 2
SYMATTR InstName R4
SYMATTR Value 10k
SYMBOL res 288 -272 M0
SYMATTR InstName R5
SYMATTR Value 1k
SYMBOL res 288 304 R180
WINDOW 0 36 76 Left 2
WINDOW 3 36 40 Left 2
SYMATTR InstName R6
SYMATTR Value 1k
