Version 4
SHEET 1 880 756
WIRE 352 -256 240 -256
WIRE 512 -256 352 -256
WIRE 240 -240 240 -256
WIRE -176 -160 -304 -160
WIRE 352 -160 352 -256
WIRE 240 -144 240 -160
WIRE 240 -144 -16 -144
WIRE 304 -144 240 -144
WIRE -176 -64 -304 -64
WIRE 32 -48 -16 -48
WIRE 352 -32 352 -64
WIRE 32 80 32 -48
WIRE 112 80 32 80
WIRE 352 80 352 48
WIRE 352 80 192 80
WIRE 512 80 352 80
WIRE 352 144 352 80
WIRE 352 320 352 224
WIRE 512 320 352 320
FLAG -304 -160 +
IOPIN -304 -160 In
FLAG -304 -64 -
IOPIN -304 -64 In
FLAG 512 -256 NO1
IOPIN 512 -256 Out
FLAG 512 320 NO2
IOPIN 512 320 Out
FLAG 512 80 DC
IOPIN 512 80 Out
SYMBOL res 336 -48 R0
SYMATTR InstName R1
SYMATTR Value 10
SYMBOL Gluisf\\optoNPN -48 -144 R0
SYMATTR InstName U1
SYMBOL res 96 96 R270
WINDOW 0 32 56 VTop 2
WINDOW 3 -2 56 VBottom 2
SYMATTR InstName R7
SYMATTR Value 100k
SYMBOL res 336 128 R0
SYMATTR InstName R2
SYMATTR Value 1m
SYMBOL pmos 304 -64 M180
SYMATTR InstName M2
SYMATTR Value SI4467DY
SYMBOL res 224 -256 R0
SYMATTR InstName R10
SYMATTR Value 1Meg
