Version 4
SHEET 1 880 680
WIRE 240 -128 176 -128
WIRE 336 -128 240 -128
WIRE 80 -112 -80 -112
WIRE 240 -96 176 -96
WIRE 336 -96 336 -128
WIRE 336 -96 240 -96
WIRE 16 -80 -160 -80
WIRE 80 -80 16 -80
WIRE 240 -64 176 -64
WIRE 336 -64 240 -64
WIRE 368 -64 336 -64
WIRE 32 -48 0 -48
WIRE 80 -48 32 -48
WIRE 368 -48 368 -64
WIRE 240 -32 176 -32
WIRE 336 -32 336 -64
WIRE 336 -32 240 -32
WIRE 80 -16 -32 -16
WIRE 336 0 176 0
WIRE 80 16 -32 16
WIRE 336 32 176 32
WIRE 240 64 176 64
WIRE 416 64 240 64
WIRE 240 96 176 96
WIRE 384 96 240 96
WIRE 240 128 176 128
WIRE 352 128 240 128
WIRE 240 160 176 160
WIRE 320 160 240 160
WIRE 192 256 176 256
FLAG 240 -128 +24VBUS
FLAG 240 -96 +24VBUS
FLAG 240 -64 -24VBUS
FLAG 240 -32 -24VBUS
FLAG 336 0 PWM-
IOPIN 336 0 Out
FLAG 240 64 SHIELD
FLAG 240 96 TEMPC
FLAG 240 128 TEMPB
FLAG 240 160 TEMPA
FLAG 192 256 VREAD+
IOPIN 192 256 In
FLAG -80 -112 IREAD+
IOPIN -80 -112 In
FLAG 16 -80 COMREAD
FLAG 32 -48 SHIELD
FLAG -32 16 FAULT-
IOPIN -32 16 Out
FLAG -32 -16 FAULT+
IOPIN -32 -16 Out
FLAG 336 32 PWM+
IOPIN 336 32 Out
FLAG 368 -48 0
SYMBOL Gluisf\\DB25 144 -128 R0
SYMATTR InstName DB1
