Version 4
SHEET 1 1436 792
WIRE -464 -208 -512 -208
WIRE 320 -208 -416 -208
WIRE -464 -176 -464 -208
WIRE -416 -176 -416 -208
WIRE 32 -160 -80 -160
WIRE -512 -144 -512 -208
WIRE -480 -128 -496 -128
WIRE -352 -128 -400 -128
WIRE -16 -80 -64 -80
WIRE 32 -80 -16 -80
WIRE -16 -48 -16 -80
WIRE -560 -16 -592 -16
WIRE -496 -16 -496 -128
WIRE -496 -16 -560 -16
WIRE -480 -16 -496 -16
WIRE -352 -16 -352 -128
WIRE -352 -16 -416 -16
WIRE -336 -16 -352 -16
WIRE -128 -16 -256 -16
WIRE 80 0 48 0
WIRE 192 0 192 -64
WIRE 192 0 160 0
WIRE -560 32 -560 -16
WIRE 48 32 48 0
WIRE -288 64 -448 64
WIRE -208 80 -224 80
WIRE -16 80 -208 80
WIRE -352 96 -352 -16
WIRE -288 96 -352 96
WIRE -448 112 -448 64
WIRE -560 128 -560 112
WIRE -288 128 -288 112
WIRE 192 128 192 0
WIRE 224 128 192 128
WIRE -16 144 -16 80
WIRE 32 144 -16 144
WIRE 224 144 128 144
WIRE 320 144 320 -208
WIRE 320 144 288 144
WIRE 352 144 320 144
WIRE 448 144 416 144
WIRE -160 176 -176 176
WIRE 32 192 -32 192
WIRE 352 192 352 160
WIRE -448 208 -448 192
WIRE -208 224 -208 80
WIRE -160 224 -208 224
WIRE 240 224 240 192
WIRE 32 240 32 224
WIRE -384 288 -416 288
WIRE -96 288 -96 240
WIRE -256 304 -320 304
WIRE -176 304 -176 176
WIRE -176 304 -192 304
WIRE -384 320 -464 320
WIRE -256 336 -272 336
WIRE -384 352 -384 336
WIRE -416 368 -416 288
WIRE 480 368 -416 368
WIRE -240 400 -240 352
WIRE -416 416 -416 368
WIRE -384 416 -416 416
WIRE -464 432 -464 400
WIRE -272 432 -272 336
WIRE -272 432 -320 432
WIRE -384 448 -528 448
WIRE -384 480 -384 464
FLAG -592 -16 VDD
IOPIN -592 -16 BiDir
FLAG 192 -64 PWM
IOPIN 192 -64 In
FLAG 448 144 GATE
IOPIN 448 144 Out
FLAG 480 368 CS
IOPIN 480 368 In
FLAG 32 240 COM
FLAG 240 224 COM
FLAG -512 -144 COM
FLAG -448 208 COM
FLAG -128 -16 RT
IOPIN -128 -16 BiDir
FLAG -560 128 COM
FLAG -80 -160 VIN
IOPIN -80 -160 In
FLAG -64 -80 GND
IOPIN -64 -80 In
FLAG -16 -48 COM
FLAG -528 448 LD
IOPIN -528 448 In
FLAG -384 480 COM
FLAG -240 400 COM
FLAG -384 352 COM
FLAG -464 432 COM
FLAG -288 128 COM
FLAG 352 192 COM
FLAG -96 288 COM
FLAG 48 32 COM
SYMBOL Digital\\srflop 80 96 R0
SYMATTR InstName A1
SYMBOL res -352 0 R270
WINDOW 0 32 56 VTop 2
WINDOW 3 0 56 VBottom 2
SYMATTR InstName R2
SYMATTR Value 22k
SYMBOL cap -416 -32 R90
WINDOW 0 0 32 VBottom 2
WINDOW 3 32 32 VTop 2
SYMATTR InstName C1
SYMATTR Value 40p
SYMBOL voltage -448 96 R0
WINDOW 123 0 0 Left 2
WINDOW 39 0 0 Left 2
SYMATTR InstName V3
SYMATTR Value 3
SYMBOL sw -496 -128 M90
SYMATTR InstName S1
SYMBOL Digital\\and 256 96 R0
WINDOW 3 -59 144 Left 2
SYMATTR Value TD=80n
SYMATTR InstName A2
SYMBOL voltage -560 16 R0
WINDOW 123 0 0 Left 2
WINDOW 39 0 0 Left 2
SYMATTR InstName V1
SYMATTR Value {VDD}
SYMBOL res 16 -176 R0
SYMATTR InstName R1
SYMATTR Value 100k
SYMBOL Digital\\diffschmtbuf -384 368 R0
WINDOW 3 0 0 Invisible 0
SYMATTR Value VT=0
SYMATTR InstName A4
SYMBOL Digital\\or -224 256 R0
SYMATTR InstName A5
SYMBOL Digital\\diffschmtbuf -384 240 R0
WINDOW 3 0 0 Invisible 0
SYMATTR Value VT=0
SYMATTR InstName A6
SYMBOL voltage -464 304 R0
WINDOW 123 0 0 Left 2
WINDOW 39 0 0 Left 2
WINDOW 0 -95 35 Left 2
WINDOW 3 -96 84 Left 2
SYMATTR InstName VREF
SYMATTR Value 250m
SYMBOL Digital\\diffschmtbuf -288 16 R0
WINDOW 3 0 0 Invisible 0
SYMATTR Value VT=0
SYMATTR InstName A3
SYMBOL Digital\\schmtbuf 352 80 R0
WINDOW 3 8 60 Invisible 2
SYMATTR Value VT=.5 VHIGH={VDD} TRISE=30n TFALL=30n
SYMATTR InstName A7
SYMBOL res 176 -16 R90
WINDOW 0 -2 56 VBottom 2
WINDOW 3 32 56 VTop 2
SYMATTR InstName R3
SYMATTR Value 100k
SYMBOL Gluisf\\LEB -96 192 R0
SYMATTR SpiceLine Tdelay=215n
SYMATTR InstName X1
TEXT -528 -280 Left 2 !.param VDD 7.5
TEXT -520 -240 Left 2 !.model SW SW(Ron=1 Roff=1Meg Vt=.5 Vh=-.4)
