Version 4
SHEET 1 880 680
WIRE 256 -48 256 -80
WIRE 352 -48 256 -48
WIRE 256 48 256 -48
WIRE 352 64 352 -48
WIRE 32 96 16 96
WIRE 144 96 112 96
WIRE 192 96 144 96
WIRE 16 144 16 96
WIRE 144 160 144 96
WIRE 256 208 256 144
WIRE 256 208 208 208
WIRE -32 224 -64 224
WIRE 256 240 256 208
WIRE 16 352 16 240
WIRE 144 352 144 256
WIRE 144 352 16 352
WIRE 256 352 256 320
WIRE 256 352 144 352
WIRE 352 352 352 128
WIRE 352 352 256 352
WIRE 256 400 256 352
FLAG -64 224 G
FLAG 256 400 E
FLAG 256 -80 C
SYMBOL nmos -32 144 R0
WINDOW 3 56 72 Invisible 2
SYMATTR Value Si4982DY
SYMATTR InstName M1
SYMBOL pnp 192 144 M180
WINDOW 0 58 32 Left 2
WINDOW 3 84 68 Invisible 2
SYMATTR InstName Q1
SYMATTR Value FJL4215
SYMBOL diode 336 128 M180
WINDOW 0 24 64 Left 2
WINDOW 3 24 0 Left 2
SYMATTR InstName D1
SYMBOL res 128 80 R90
WINDOW 0 0 56 VBottom 2
WINDOW 3 32 56 VTop 2
SYMATTR InstName R1
SYMATTR Value 100m
SYMBOL res 240 224 R0
SYMATTR InstName R2
SYMATTR Value 5m
SYMBOL npn 208 160 M0
WINDOW 3 56 68 Invisible 2
SYMATTR InstName Q2
SYMATTR Value FJL4315
