Version 4
SHEET 1 888 680
WIRE 64 -240 -480 -240
WIRE 272 -240 144 -240
WIRE 80 -160 80 -192
WIRE 336 -80 256 -80
WIRE 256 -64 256 -80
WIRE 336 -48 336 -80
WIRE 256 32 256 16
WIRE -192 64 -480 64
WIRE -16 64 -128 64
WIRE 336 64 336 32
WIRE 336 64 208 64
WIRE 416 64 336 64
WIRE -192 96 -240 96
WIRE 208 96 208 64
WIRE 336 96 336 64
WIRE -16 112 -48 112
WIRE 128 112 128 -192
WIRE 128 112 96 112
WIRE 160 112 128 112
WIRE -192 128 -192 112
WIRE -240 144 -240 96
WIRE 160 176 160 160
WIRE 208 192 208 176
WIRE 336 192 336 160
WIRE -48 240 -48 112
WIRE 0 240 -48 240
WIRE 416 240 416 64
WIRE 416 240 64 240
FLAG -480 64 S
IOPIN -480 64 In
FLAG 160 176 0
FLAG 208 192 0
FLAG 336 192 0
FLAG 256 32 0
FLAG -240 144 COM
FLAG -192 128 0
FLAG -480 -240 IN
IOPIN -480 -240 In
FLAG 272 -240 OUT
IOPIN 272 -240 Out
FLAG 80 -160 0
SYMBOL Digital\\srflop 32 16 R0
WINDOW 3 -44 144 Left 2
SYMATTR Value TD=1n
SYMATTR InstName A1
SYMBOL sw 208 192 M180
SYMATTR InstName S1
SYMBOL cap 320 96 R0
SYMATTR InstName C1
SYMATTR Value {C}
SYMBOL res 320 -64 R0
SYMATTR InstName R1
SYMATTR Value {R}
SYMBOL voltage 256 -80 R0
SYMATTR InstName V1
SYMATTR Value 1
SYMBOL Digital\\schmtbuf 64 176 M0
WINDOW 3 -60 101 Left 2
SYMATTR Value VT=.5 VH=0
SYMATTR InstName A2
SYMBOL Digital\\diffschmitt -192 16 R0
WINDOW 3 8 44 Invisible 2
SYMATTR Value VHIGH={VHIGH}
SYMATTR InstName A3
SYMBOL sw 48 -240 R270
SYMATTR InstName S2
TEXT 464 64 Left 2 !.param VHIGH=1\n.param Tdelay=400n\n.param C=100p\n.param R=-(Tdelay-1n)/(C*LN(0.5))\n.model SW SW(VT=.5)
