Version 4
SHEET 1 880 680
WIRE 384 -32 112 -32
WIRE 208 32 112 32
WIRE 208 64 208 32
WIRE 288 96 256 96
WIRE 480 96 288 96
WIRE 608 96 480 96
WIRE 192 112 112 112
WIRE 480 112 480 96
WIRE 320 128 256 128
WIRE 384 128 384 -32
WIRE 432 128 384 128
WIRE 432 176 384 176
WIRE 384 192 384 176
WIRE 224 208 112 208
WIRE 480 208 480 192
WIRE 224 240 224 208
WIRE 288 272 288 96
WIRE 288 272 240 272
WIRE 176 288 112 288
WIRE 320 304 320 128
WIRE 320 304 240 304
WIRE 480 304 480 288
WIRE 480 304 320 304
WIRE 608 304 480 304
WIRE 240 448 192 448
WIRE 368 448 320 448
WIRE 240 512 192 512
WIRE 368 512 320 512
FLAG 112 112 DI
IOPIN 112 112 In
FLAG 112 288 RO
IOPIN 112 288 Out
FLAG 112 -32 TE
IOPIN 112 -32 In
FLAG 112 208 _RE
IOPIN 112 208 In
FLAG 112 32 DE
IOPIN 112 32 In
FLAG 368 448 $G_VCC
FLAG 368 512 $G_GND
FLAG 192 448 Vcc
IOPIN 192 448 BiDir
FLAG 192 512 GND
IOPIN 192 512 BiDir
FLAG 608 96 A
IOPIN 608 96 BiDir
FLAG 608 304 B
IOPIN 608 304 BiDir
FLAG 384 192 $G_GND
SYMBOL driver 192 48 R0
SYMATTR InstName X1
SYMBOL receiver 240 224 M0
SYMATTR InstName X2
SYMBOL res 496 192 M0
SYMATTR InstName R1
SYMATTR Value 120
SYMBOL sw 480 208 M180
SYMATTR InstName S1
SYMBOL res 336 432 R90
WINDOW 0 0 56 VBottom 2
WINDOW 3 32 56 VTop 2
SYMATTR InstName R2
SYMATTR Value 1
SYMBOL res 336 496 R90
WINDOW 0 0 56 VBottom 2
WINDOW 3 32 56 VTop 2
SYMATTR InstName R3
SYMATTR Value 1
TEXT 456 400 Left 2 !.model SW SW(Vt=2)
