Version 4
SHEET 1 904 680
WIRE -64 -80 -64 -96
WIRE -64 16 -64 0
WIRE -64 16 -160 16
WIRE -16 16 -64 16
WIRE 80 16 48 16
WIRE 208 16 208 -32
WIRE 208 16 160 16
WIRE 272 16 272 -32
WIRE 384 16 272 16
WIRE 208 64 208 16
WIRE 272 64 272 16
WIRE -64 160 -144 160
WIRE 48 160 0 160
WIRE 160 160 128 160
WIRE 272 160 224 160
WIRE 384 160 272 160
WIRE 272 176 272 160
WIRE 272 272 272 256
WIRE -80 304 -80 288
WIRE -80 400 -80 384
WIRE -80 400 -176 400
WIRE -32 400 -80 400
WIRE 64 400 32 400
WIRE 192 400 192 352
WIRE 192 400 144 400
WIRE 256 400 256 352
WIRE 368 400 256 400
WIRE 192 448 192 400
WIRE 256 448 256 400
WIRE -80 544 -160 544
WIRE 32 544 -16 544
WIRE 144 544 112 544
WIRE 256 544 208 544
WIRE 368 544 256 544
WIRE 256 560 256 544
WIRE 256 656 256 640
FLAG 272 272 0
FLAG 384 160 R1IN
IOPIN 384 160 In
FLAG -144 160 R1OUT
IOPIN -144 160 Out
FLAG 384 16 T1OUT
IOPIN 384 16 Out
FLAG -160 16 T1IN
IOPIN -160 16 In
FLAG 256 656 0
FLAG 368 544 R2IN
IOPIN 368 544 In
FLAG -160 544 R2OUT
IOPIN -160 544 Out
FLAG 368 400 T2OUT
IOPIN 368 400 Out
FLAG -176 400 T2IN
IOPIN -176 400 In
SYMBOL Digital\\schmtinv 224 96 M0
WINDOW 3 8 60 Invisible 2
SYMATTR Value Vt=1.45 Vh=.25 Vhigh=5 Vlow=0 Td=200n
SYMATTR InstName A1
SYMBOL res 288 160 M0
SYMATTR InstName R1
SYMATTR Value 5k
SYMBOL diode 0 176 M270
WINDOW 0 32 32 VTop 2
WINDOW 3 0 32 VBottom 2
SYMATTR InstName D1
SYMBOL res 144 176 M270
WINDOW 0 32 56 VTop 2
WINDOW 3 0 56 VBottom 2
SYMATTR InstName R2
SYMATTR Value 300
SYMBOL Digital\\schmtinv -16 -48 R0
WINDOW 3 8 60 Invisible 2
SYMATTR Value Vt=1.4 Vh=.6 Vhigh=7 Vlow=-7 Td=50n Trise=2u
SYMATTR InstName A2
SYMBOL res -48 16 R180
WINDOW 0 36 76 Left 2
WINDOW 3 36 40 Left 2
SYMATTR InstName R4
SYMATTR Value 5k
SYMBOL diode 208 80 R270
WINDOW 0 32 32 VTop 2
WINDOW 3 0 32 VBottom 2
SYMATTR InstName D2
SYMBOL res 64 32 R270
WINDOW 0 32 56 VTop 2
WINDOW 3 0 56 VBottom 2
SYMATTR InstName R5
SYMATTR Value 300
SYMBOL diode 272 -48 R90
WINDOW 0 0 32 VBottom 2
WINDOW 3 32 32 VTop 2
SYMATTR InstName D3
SYMBOL Gluisf\\V+ -64 -96 R0
SYMATTR Value V=5
SYMATTR InstName U1
SYMBOL Digital\\schmtinv 208 480 M0
WINDOW 3 8 60 Invisible 2
SYMATTR Value Vt=1.45 Vh=.25 Vhigh=5 Vlow=0 Td=200n
SYMATTR InstName A3
SYMBOL res 272 544 M0
SYMATTR InstName R3
SYMATTR Value 5k
SYMBOL diode -16 560 M270
WINDOW 0 32 32 VTop 2
WINDOW 3 0 32 VBottom 2
SYMATTR InstName D4
SYMBOL res 128 560 M270
WINDOW 0 32 56 VTop 2
WINDOW 3 0 56 VBottom 2
SYMATTR InstName R6
SYMATTR Value 300
SYMBOL Digital\\schmtinv -32 336 R0
WINDOW 3 8 60 Invisible 2
SYMATTR Value Vt=1.4 Vh=.6 Vhigh=7 Vlow=-7 Td=50n Trise=2u
SYMATTR InstName A4
SYMBOL res -64 400 R180
WINDOW 0 36 76 Left 2
WINDOW 3 36 40 Left 2
SYMATTR InstName R7
SYMATTR Value 5k
SYMBOL diode 192 464 R270
WINDOW 0 32 32 VTop 2
WINDOW 3 0 32 VBottom 2
SYMATTR InstName D5
SYMBOL res 48 416 R270
WINDOW 0 32 56 VTop 2
WINDOW 3 0 56 VBottom 2
SYMATTR InstName R8
SYMATTR Value 300
SYMBOL diode 256 336 R90
WINDOW 0 0 32 VBottom 2
WINDOW 3 32 32 VTop 2
SYMATTR InstName D6
SYMBOL Gluisf\\V+ -80 288 R0
SYMATTR Value V=5
SYMATTR InstName U2
TEXT 496 264 Left 4 ;RS232
TEXT -352 272 Left 4 ;TTL
TEXT -40 -208 Left 2 !.model D D(Vfwd=0 Ilimit=10m)
