Version 4
SHEET 1 880 680
WIRE 240 16 240 -16
WIRE 112 96 48 96
WIRE 416 128 368 128
WIRE 112 144 48 144
WIRE 112 176 48 176
WIRE 416 192 368 192
WIRE 112 240 48 240
WIRE 240 368 240 336
FLAG 240 368 0
FLAG 48 96 RO
IOPIN 48 96 Out
FLAG 48 144 _RE
IOPIN 48 144 In
FLAG 48 176 DE
IOPIN 48 176 In
FLAG 48 240 DI
IOPIN 48 240 In
FLAG 416 128 A
IOPIN 416 128 BiDir
FLAG 416 192 B
IOPIN 416 192 BiDir
SYMBOL SpecialFunctions\\LTC2862-1 240 176 R0
SYMATTR InstName U1
SYMBOL Gluisf\\V+ 240 -16 R0
SYMATTR Value V=5
SYMATTR InstName U2
