*PTC with resistence varying temperature of LTspice
*PRF18BE471RB5RB
.subckt BE471R 1 2
RPTC 1 2 R={mc(470,tol)}*TBL(temp,-20,1.281,-15,1.221,-10,1.164,-5,1.122,0,1.081,5,1.05,10,1.027,15,1.008,20,1.004,25,1.002,30,1.011,35,1.034,40,1.064,45,1.109,50,1.166,55,1.239,60,1.36,65,1.556,70,1.954,75,2.948,80,5.215,85,9.99,90,20.98,95,45.55,100,95.77)
.param tol 0.5
.ends

*PRF18BF471RB5RB
.subckt BF471R 1 2
RPTC 1 2 R={mc(470,tol)}*TBL(temp,-20,1.011,-15,971.6m,-10,936.9m,-5,912.7m,0,897.4m,5,894.3m,10,896.9m,15,909.5m,20,930.1m,25,955.6m,30,1.001,35,1.057,40,1.136,45,1.248,50,1.404,55,1.646,60,2.078,65,3.152,70,5.614,75,10.25,80,22.4,85,46.24,90,100.3,95,215.1,100,458.3)
.param tol 0.5
.ends

*PRF18BG471RB5RB
.subckt BG471R 1 2
RPTC 1 2 R={mc(470,tol)}*TBL(temp,-20,1.068,-15,1.022,-10,978.5m,-5,944.8m,0,918.3m,5,902.6m,10,898.3m,15,907.5m,20,939.4m,25,998.4m,30,1.089,35,1.207,40,1.394,45,1.729,50,2.345,55,3.483,60,5.766,65,10.77,70,23.04,75,49.56,80,102.1,85,209,90,426.4,95,865,100,1.755k)
.param tol 0.5
.ends

*PTC with resistence varying global node $G_temp voltage
*PRF18BE471RB5RB
.subckt BE471R_ 1 2
RPTC 1 2 R={mc(470,tol)}*TBL(V($G_temp),-20,1.281,-15,1.221,-10,1.164,-5,1.122,0,1.081,5,1.05,10,1.027,15,1.008,20,1.004,25,1.002,30,1.011,35,1.034,40,1.064,45,1.109,50,1.166,55,1.239,60,1.36,65,1.556,70,1.954,75,2.948,80,5.215,85,9.99,90,20.98,95,45.55,100,95.77)
.param tol 0.5
.ends

*PRF18BF471RB5RB
.subckt BF471R_ 1 2
RPTC 1 2 R={mc(470,tol)}*TBL(V($G_temp),-20,1.011,-15,971.6m,-10,936.9m,-5,912.7m,0,897.4m,5,894.3m,10,896.9m,15,909.5m,20,930.1m,25,955.6m,30,1.001,35,1.057,40,1.136,45,1.248,50,1.404,55,1.646,60,2.078,65,3.152,70,5.614,75,10.25,80,22.4,85,46.24,90,100.3,95,215.1,100,458.3)
.param tol 0.5
.ends

*PRF18BG471RB5RB
.subckt BG471R_ 1 2
RPTC 1 2 R={mc(470,tol)}*TBL(V($G_temp),-20,1.068,-15,1.022,-10,978.5m,-5,944.8m,0,918.3m,5,902.6m,10,898.3m,15,907.5m,20,939.4m,25,998.4m,30,1.089,35,1.207,40,1.394,45,1.729,50,2.345,55,3.483,60,5.766,65,10.77,70,23.04,75,49.56,80,102.1,85,209,90,426.4,95,865,100,1.755k)
.param tol 0.5
.ends
