Version 4
SHEET 1 984 680
WIRE 64 144 64 96
WIRE 720 144 560 144
WIRE 864 144 816 144
WIRE 912 160 912 112
WIRE 560 176 560 144
WIRE 864 176 864 144
WIRE 720 192 656 192
WIRE 656 240 656 192
WIRE 864 240 864 224
WIRE 64 272 64 224
WIRE 560 272 560 256
WIRE 912 272 912 240
WIRE 656 336 656 320
FLAG 64 96 A1
IOPIN 64 96 BiDir
FLAG 64 272 A2
IOPIN 64 272 BiDir
FLAG 560 272 0
FLAG 864 240 0
FLAG 912 112 NA1
IOPIN 912 112 BiDir
FLAG 912 272 NA2
IOPIN 912 272 BiDir
FLAG 656 336 0
SYMBOL ind 80 128 M0
WINDOW 39 36 108 Left 2
SYMATTR SpiceLine Rser={RS}
SYMATTR InstName L1
SYMATTR Value {L}
SYMBOL bv 560 160 M0
SYMATTR InstName B1
SYMATTR Value V=DELAY(ABS(V(A1,A2))>0.75*VDC,15m)
SYMBOL sw 912 256 M180
SYMATTR InstName S1
SYMBOL Digital\\srflop 768 96 R0
SYMATTR InstName A1
SYMBOL bv 656 224 M0
SYMATTR InstName B2
SYMATTR Value V=DELAY(ABS(V(A1,A2))<0.05*VDC,5m)
TEXT 104 392 Left 2 ;.param L=1.97m RS=123 VDC=5 RON=100m
TEXT 104 448 Left 2 !.model SW SW(Ron={RON} Roff=100Meg Vt=0.5 Vh=-0.1)
