Version 4
SHEET 1 1496 1100
WIRE -160 -448 -160 -464
WIRE -96 -432 -128 -432
WIRE 0 -432 -64 -432
WIRE -192 -416 -240 -416
WIRE 16 -400 -128 -400
WIRE 112 -400 16 -400
WIRE -240 -384 -240 -400
WIRE -160 -368 -160 -384
WIRE 16 -368 16 -400
WIRE -32 -288 -448 -288
WIRE 16 -256 16 -272
WIRE -1280 -80 -1280 -128
WIRE -1088 -80 -1088 -128
WIRE -944 -80 -944 -128
WIRE 16 -48 -256 -48
WIRE 176 -48 176 -144
WIRE 240 -48 176 -48
WIRE 352 -48 304 -48
WIRE -96 16 -160 16
WIRE 16 16 16 -48
WIRE 16 16 -32 16
WIRE 32 16 16 16
WIRE 352 16 352 -48
WIRE 352 16 112 16
WIRE 432 16 352 16
WIRE -1280 48 -1280 0
WIRE -1088 48 -1088 0
WIRE -944 48 -944 0
WIRE -256 48 -256 -48
WIRE 80 80 -64 80
WIRE 176 80 176 -48
WIRE 16 128 16 16
WIRE -64 144 -64 80
WIRE -16 144 -64 144
WIRE 80 160 80 80
WIRE 80 160 48 160
WIRE 128 160 80 160
WIRE -256 176 -256 128
WIRE -16 176 -256 176
WIRE 176 176 176 160
WIRE 176 192 176 176
WIRE 432 192 176 192
WIRE -256 240 -256 176
WIRE -160 288 -160 16
WIRE 16 288 16 192
WIRE 16 288 -160 288
WIRE 176 288 16 288
WIRE 432 288 176 288
WIRE -1008 320 -1088 320
WIRE -912 320 -944 320
WIRE -832 320 -912 320
WIRE -784 320 -832 320
WIRE -304 320 -336 320
WIRE -1152 336 -1248 336
WIRE -912 336 -912 320
WIRE -832 352 -832 320
WIRE -256 352 -256 336
WIRE 80 352 -64 352
WIRE -1248 368 -1248 336
WIRE 176 368 176 288
WIRE -1520 384 -1584 384
WIRE -1392 384 -1520 384
WIRE -1296 384 -1328 384
WIRE 16 384 0 384
WIRE -1520 400 -1520 384
WIRE -1392 400 -1408 400
WIRE -1152 400 -1152 368
WIRE 16 416 16 384
WIRE -912 432 -912 416
WIRE -832 432 -832 416
WIRE -64 432 -64 352
WIRE -16 432 -64 432
WIRE 80 448 80 352
WIRE 80 448 48 448
WIRE 128 448 80 448
WIRE -784 464 -784 320
WIRE -752 464 -784 464
WIRE -560 464 -656 464
WIRE -448 464 -448 -288
WIRE -448 464 -496 464
WIRE -336 464 -336 320
WIRE -336 464 -448 464
WIRE -16 464 -336 464
WIRE -1248 480 -1248 448
WIRE -1088 480 -1088 352
WIRE -864 480 -1088 480
WIRE -1520 496 -1520 480
WIRE -1520 496 -1552 496
WIRE -1296 496 -1296 432
WIRE -1296 496 -1520 496
WIRE -864 496 -864 480
WIRE -896 512 -912 512
WIRE -864 512 -896 512
WIRE -752 512 -800 512
WIRE -560 512 -560 480
WIRE 16 512 16 480
WIRE 176 512 176 464
WIRE -976 528 -1008 528
WIRE -976 560 -1008 560
WIRE -752 576 -752 544
WIRE -960 592 -960 560
WIRE -848 592 -848 560
WIRE -1376 624 -1504 624
WIRE -1376 640 -1376 624
WIRE -1168 640 -1200 640
WIRE -1008 640 -1008 560
WIRE -1008 640 -1040 640
WIRE 176 688 -64 688
WIRE -1248 720 -1328 720
WIRE -1104 720 -1104 688
WIRE -656 720 -672 720
WIRE -544 720 -576 720
WIRE 176 720 176 688
WIRE -1248 736 -1248 720
WIRE -944 752 -1200 752
WIRE -896 752 -896 512
WIRE -896 752 -944 752
WIRE -656 752 -672 752
WIRE -544 752 -544 720
WIRE -544 752 -576 752
WIRE -656 784 -672 784
WIRE -544 784 -544 752
WIRE -544 784 -576 784
WIRE -944 816 -1008 816
WIRE -656 816 -672 816
WIRE -544 816 -544 784
WIRE -544 816 -576 816
WIRE 176 816 176 784
WIRE 656 816 176 816
WIRE -1376 832 -1376 736
WIRE -1376 832 -1488 832
WIRE -1248 832 -1248 816
WIRE -1248 832 -1376 832
WIRE -1008 848 -1008 816
WIRE 176 848 176 816
WIRE -1200 864 -1200 800
WIRE -1008 960 -1008 928
WIRE 176 1024 176 928
FLAG 176 512 COM
FLAG 16 512 COM
FLAG 0 384 VISO
FLAG 176 -144 VISO
FLAG -256 352 COM
FLAG 176 1024 COM
FLAG -160 -368 COM
FLAG -160 -464 VISO
FLAG 16 -256 COM
FLAG 432 192 GH
IOPIN 432 192 BiDir
FLAG 432 288 GL
IOPIN 432 288 BiDir
FLAG 432 16 VGXX
IOPIN 432 16 BiDir
FLAG -64 688 VISO
IOPIN -64 688 BiDir
FLAG 656 816 VEE
IOPIN 656 816 BiDir
FLAG 112 -400 VCE
IOPIN 112 -400 BiDir
FLAG 0 -432 VEE
FLAG -1584 384 IN
IOPIN -1584 384 BiDir
FLAG -304 -416 SHORT
FLAG -1104 720 COM
FLAG -912 432 COM
FLAG -1008 528 UVLO
FLAG -1248 480 COM
FLAG -1200 864 COM
FLAG -944 752 FAULT
FLAG -1504 624 SO
IOPIN -1504 624 BiDir
FLAG -1488 832 GND0
FLAG -1552 496 GND0
FLAG -1408 400 GND0
FLAG -672 816 GND3
IOPIN -672 816 BiDir
FLAG -1088 -128 NC1
FLAG -944 -128 NC2
FLAG -1088 48 GND0
FLAG -944 48 COM
FLAG -672 784 GND2
IOPIN -672 784 BiDir
FLAG -672 752 GND1
IOPIN -672 752 BiDir
FLAG -672 720 GND0
IOPIN -672 720 BiDir
FLAG -1280 -128 VCC
IOPIN -1280 -128 BiDir
FLAG -1280 48 GND0
FLAG -240 -384 COM
FLAG -848 592 COM
FLAG -960 592 COM
FLAG -1152 400 COM
FLAG -752 576 COM
FLAG -560 512 COM
FLAG -944 816 UVLO
FLAG -1008 960 COM
FLAG -1200 640 SHORT
FLAG -832 432 COM
SYMBOL nmos 128 80 R0
WINDOW 0 56 32 Invisible 2
WINDOW 3 56 72 Invisible 2
SYMATTR InstName M1
SYMATTR Value 2N7000
SYMBOL diode 240 -32 R270
WINDOW 0 32 32 Invisible 2
WINDOW 3 0 32 Invisible 2
SYMATTR InstName D1
SYMBOL Opamps\\UniversalOpamp2 16 160 R0
WINDOW 0 16 -32 Invisible 2
SYMATTR InstName U1
SYMBOL Opamps\\UniversalOpamp2 16 448 R0
WINDOW 0 16 -32 Invisible 2
SYMATTR InstName U2
SYMBOL nmos 128 368 R0
WINDOW 0 56 32 Invisible 2
WINDOW 3 56 72 Invisible 2
SYMATTR InstName M2
SYMATTR Value 2N7000
SYMBOL res 128 0 R90
WINDOW 0 0 56 Invisible 2
WINDOW 3 32 56 Invisible 2
SYMATTR InstName R2
SYMATTR Value 47k
SYMBOL zener -96 32 R270
WINDOW 0 32 32 Invisible 2
WINDOW 3 0 32 Invisible 2
SYMATTR InstName D2
SYMATTR Value BZX84C10L
SYMATTR Description Diode
SYMATTR Type diode
SYMBOL nmos -304 240 R0
WINDOW 0 56 32 Invisible 2
WINDOW 3 56 72 Invisible 2
SYMATTR InstName M3
SYMATTR Value 2N7000
SYMBOL res -272 32 R0
WINDOW 0 36 40 Invisible 2
WINDOW 3 36 76 Invisible 2
SYMATTR InstName R3
SYMATTR Value 33k
SYMBOL res 160 832 R0
SYMATTR InstName R4
SYMATTR Value 10k
SYMBOL nmos -32 -368 R0
WINDOW 0 56 32 Invisible 2
WINDOW 3 56 72 Invisible 2
SYMATTR InstName M4
SYMATTR Value 2N7000
SYMBOL Opamps\\UniversalOpamp2 -160 -416 M0
WINDOW 0 16 -32 Invisible 2
SYMATTR InstName U3
SYMBOL voltage- -80 -432 R270
WINDOW 0 10 0 VTop 2
WINDOW 3 -10 0 VBottom 2
SYMATTR InstName Vdes
SYMATTR Value 7.8
SYMBOL zener 192 784 R180
WINDOW 0 24 64 Left 2
WINDOW 3 -157 12 Left 2
SYMATTR InstName D4
SYMATTR Value BZX84C15VL
SYMATTR Description Diode
SYMATTR Type diode
SYMBOL Digital\\srflop -704 416 R0
WINDOW 3 -40 152 Invisible 2
SYMATTR Value VHIGH=10
SYMATTR InstName A2
SYMBOL Digital\\or -944 464 R0
WINDOW 0 -8 8 Invisible 2
WINDOW 3 -8 36 Invisible 2
SYMATTR InstName A1
SYMATTR Value VHIGH=10
SYMBOL cap -944 304 R90
WINDOW 0 0 32 VBottom 2
WINDOW 3 32 32 VTop 2
SYMATTR InstName C8
SYMATTR Value 100p
SYMBOL res -928 432 M180
WINDOW 0 36 76 Left 2
WINDOW 3 36 40 Left 2
SYMATTR InstName R5
SYMATTR Value 10k
SYMBOL Digital\\inv -560 400 R0
WINDOW 3 8 60 Invisible 2
SYMATTR Value VHIGH=10
SYMATTR InstName A4
SYMBOL Digital\\buf1 -240 -480 M0
WINDOW 3 8 104 Invisible 2
SYMATTR Value VHIGH=10
SYMATTR InstName A5
SYMBOL Digital\\buf -1152 272 R0
WINDOW 0 8 16 Invisible 2
WINDOW 3 0 0 Invisible 0
SYMATTR InstName A6
SYMATTR Value VHIGH=10
SYMBOL Digital\\schmtbuf -1392 320 R0
WINDOW 0 8 32 Invisible 2
WINDOW 3 8 104 Invisible 2
SYMATTR InstName A7
SYMATTR Value VT=2 VH=0.1 VHIGH=5
SYMBOL e -1248 352 R0
SYMATTR InstName E1
SYMATTR Value 2
SYMBOL e -1248 720 M0
SYMATTR InstName E2
SYMATTR Value 0.5
SYMBOL nmos -1328 640 M0
WINDOW 0 56 32 Invisible 2
WINDOW 3 56 72 Invisible 2
SYMATTR InstName M6
SYMATTR Value 2N7000
SYMBOL Digital\\or -832 464 R0
WINDOW 0 -8 8 Invisible 2
WINDOW 3 -8 36 Invisible 2
SYMATTR InstName A3
SYMATTR Value VHIGH=10
SYMBOL res -1104 -96 R0
SYMATTR InstName R6
SYMATTR Value 100Meg
SYMBOL res -960 -96 R0
SYMATTR InstName R7
SYMATTR Value 100Meg
SYMBOL res -1536 384 R0
SYMATTR InstName R8
SYMATTR Value 500k
SYMBOL res -1296 -96 R0
SYMATTR InstName R9
SYMATTR Value 1k
SYMBOL res -560 736 R90
WINDOW 0 0 56 Invisible 2
WINDOW 3 32 56 Invisible 2
SYMATTR InstName R10
SYMATTR Value 1m
SYMBOL res -560 768 R90
WINDOW 0 0 56 Invisible 2
WINDOW 3 32 56 Invisible 2
SYMATTR InstName R11
SYMATTR Value 1m
SYMBOL res -560 800 R90
WINDOW 0 0 56 Invisible 2
WINDOW 3 32 56 Invisible 2
SYMATTR InstName R12
SYMATTR Value 1m
SYMBOL voltage -1008 832 R0
SYMATTR InstName V1
SYMATTR Value 0
SYMBOL LtSpicePlus\\Digital\\Delay-Test1\\delay -1104 640 R0
WINDOW 0 -63 -96 Invisible 0
WINDOW 40 -64 -32 Left 1
WINDOW 38 -64 -64 Left 2
SYMATTR InstName U4
SYMATTR SpiceLine2 Tdel=190n
SYMBOL diode -816 416 R180
WINDOW 0 24 64 Invisible 2
WINDOW 3 24 0 Invisible 2
SYMATTR InstName D3
SYMBOL voltage -672 720 R270
WINDOW 0 32 56 VTop 2
WINDOW 3 -32 56 VBottom 2
SYMATTR InstName V2
SYMATTR Value 0
TEXT -368 -96 Left 2 ;LEVEL SHIFT
TEXT -144 -96 Left 2 ;BOOTSTRAP CHARGE PUMP
TEXT 128 616 Left 2 ;VEE CONTROL
TEXT -24 -760 Left 2 !.param f 2k
TEXT 208 416 Left 2 ;OFF
TEXT 208 128 Left 2 ;ON
TEXT 208 672 Left 2 !.ic V(VISO,VEE)=-9
RECTANGLE Normal -176 384 -368 -80 2
RECTANGLE Normal 368 64 -144 -80 2
RECTANGLE Normal 464 976 0 640 2
