Version 4
SHEET 1 1572 916
WIRE 320 80 -272 80
WIRE -272 128 -272 80
WIRE -144 128 -272 128
WIRE -64 128 -144 128
WIRE 320 128 320 80
WIRE 320 128 272 128
WIRE -272 176 -272 128
WIRE -144 208 -144 128
WIRE -64 208 -144 208
WIRE 336 208 272 208
WIRE 528 208 336 208
WIRE 624 208 528 208
WIRE 784 208 704 208
WIRE 832 208 784 208
WIRE 944 208 832 208
WIRE 1088 208 944 208
WIRE 1216 208 1088 208
WIRE 784 240 784 208
WIRE 1216 240 1216 208
WIRE 528 256 528 208
WIRE 944 256 944 208
WIRE 1088 256 1088 208
WIRE -272 288 -272 256
WIRE -272 288 -416 288
WIRE -160 288 -272 288
WIRE -64 288 -160 288
WIRE 288 288 272 288
WIRE 304 288 288 288
WIRE 384 288 368 288
WIRE -416 336 -416 288
WIRE -272 352 -272 288
WIRE -64 368 -80 368
WIRE 320 368 272 368
WIRE 384 368 384 288
WIRE 528 368 528 320
WIRE 784 368 784 304
WIRE 1088 368 1088 336
WIRE 1216 368 1216 320
WIRE 320 384 320 368
WIRE -80 416 -80 368
WIRE 368 416 -80 416
WIRE 944 416 944 336
WIRE 944 416 368 416
WIRE 944 464 944 416
WIRE -416 480 -416 416
WIRE -272 480 -272 416
WIRE 944 560 944 544
FLAG -416 480 0
FLAG -272 480 0
FLAG 384 368 0
FLAG 528 368 0
FLAG 784 368 0
FLAG 832 208 Vo
FLAG 944 560 0
FLAG 1088 368 0
FLAG 320 384 0
FLAG 288 288 ct
FLAG 336 208 swe
FLAG -160 288 vdd
FLAG 368 416 cinv
FLAG 1216 368 0
FLAG 320 80 swc
SYMBOL voltage -416 320 R0
WINDOW 123 0 0 Left 0
WINDOW 39 24 132 Left 0
SYMATTR SpiceLine Rser=0.3
SYMATTR InstName V1
SYMATTR Value 25
SYMBOL res -256 272 R180
WINDOW 0 -39 87 Left 0
WINDOW 3 -52 44 Left 0
SYMATTR InstName R1
SYMATTR Value 0.33
SYMBOL cap 304 304 R270
WINDOW 0 32 32 VTop 0
WINDOW 3 0 32 VBottom 0
SYMATTR InstName C2
SYMATTR Value 470p
SYMBOL schottky 544 320 R180
WINDOW 0 -34 67 Left 0
WINDOW 3 -86 3 Left 0
SYMATTR InstName D1
SYMATTR Value 1N5819
SYMATTR Description Diode
SYMATTR Type diode
SYMBOL ind2 608 224 R270
WINDOW 0 32 56 VTop 0
WINDOW 3 4 56 VBottom 0
SYMATTR InstName L1
SYMATTR Value 220µ
SYMATTR SpiceLine Rser=0.5
SYMATTR Type ind
SYMBOL res 928 240 R0
SYMATTR InstName R2
SYMATTR Value 3.6k
SYMBOL res 928 448 R0
SYMATTR InstName R3
SYMATTR Value 1.2k
SYMBOL load2 1088 256 R0
WINDOW 123 0 0 Left 0
WINDOW 39 0 0 Left 0
SYMATTR InstName I1
SYMATTR Value 0.5m
SYMBOL res 1200 224 R0
SYMATTR InstName R4
SYMATTR Value 10
SYMBOL polcap 768 240 R0
WINDOW 39 24 113 Left 0
WINDOW 40 24 85 Left 0
SYMATTR SpiceLine Rser=0.1
SYMATTR SpiceLine2 IC=0
SYMATTR InstName C3
SYMATTR Value 220µ
SYMBOL polcap -288 352 R0
WINDOW 39 24 113 Left 0
WINDOW 40 24 85 Left 0
SYMATTR SpiceLine Rser=0.1
SYMATTR SpiceLine2 IC=25
SYMATTR InstName C1
SYMATTR Value 220µ
SYMBOL SmpsAdd\\Mc34063 176 224 R0
SYMATTR InstName U2
TEXT -88 448 Left 0 !.tran 0 2m5 1u 100n uic
TEXT -88 480 Left 0 !.options Gmin=1e-9  method=Gear
TEXT -424 -176 Left 0 ;Three of the models have been modified to LTSPICE syntax.\nThe PSPICE model runs without** any modifiacation in LTSPICE.\nSo we have now three models available for the 34063 and one model for the\nMC33063.The MC34063 model and the MC34063p model have the closest\nmatch, but I don't know if they best match the real part. \n    MC34063   (modified* original model included in ICAP/4 demo)\n    MC34063p  (original ONsemi PSPICE model) **\n    MC34063a  (modified* original ONsemi model for ICAP/4 demo)\n    MC33063    (modified* original ONsemi model for ICAP/4 demo)
TEXT 400 -168 Left 0 ;*   Means syntax of IF-THEN-ELSE statement adapted to LTSPICE\n       All SPICE command lines starting with a comment "*" have been \n       changed to be compatible with LTSPICE. \n      \n   ** This has been possible without modification, because no SW(itch) statement \n       has been used.  VT and VH of SW are defined differently in PSPICE.\n \nSet the initial conditions of the capacitors C1 and C3 accordingly to your simulation\nneeds. These are the IC=...  properties of the filter capacitors in the schematic.
TEXT 288 112 Left 0 ;1
TEXT 288 184 Left 0 ;2
TEXT 296 256 Left 0 ;3
TEXT -96 352 Left 0 ;5
TEXT 288 352 Left 0 ;4
TEXT -96 272 Left 0 ;6
TEXT -96 192 Left 0 ;7
TEXT -96 112 Left 0 ;8
