Version 4
SHEET 1 1520 680
WIRE -112 176 -112 -48
WIRE -112 480 -112 256
WIRE -64 -48 -112 -48
WIRE -64 0 -64 -48
WIRE -64 208 -64 80
WIRE -64 336 -64 208
WIRE -64 384 -64 336
WIRE -64 480 -112 480
WIRE -64 480 -64 464
WIRE -64 512 -64 480
WIRE -32 336 -64 336
WIRE 0 176 0 160
WIRE 0 224 0 176
WIRE 16 -48 -64 -48
WIRE 16 -32 16 -48
WIRE 16 48 16 32
WIRE 32 176 0 176
WIRE 32 176 32 96
WIRE 32 480 -64 480
WIRE 32 480 32 416
WIRE 48 176 32 176
WIRE 48 208 -64 208
WIRE 64 416 32 416
WIRE 80 -48 16 -48
WIRE 80 160 80 -48
WIRE 80 288 0 288
WIRE 80 288 80 224
WIRE 80 304 80 288
WIRE 128 96 32 96
WIRE 128 192 112 192
WIRE 128 192 128 176
WIRE 128 336 48 336
WIRE 128 336 128 192
WIRE 144 336 128 336
WIRE 176 416 144 416
WIRE 176 448 176 416
WIRE 192 416 176 416
WIRE 192 448 176 448
WIRE 208 80 0 80
WIRE 208 96 208 80
WIRE 208 192 128 192
WIRE 208 192 208 160
WIRE 208 224 208 192
WIRE 240 -48 80 -48
WIRE 240 -32 240 -48
WIRE 240 80 240 48
WIRE 240 336 224 336
WIRE 240 336 240 80
WIRE 256 80 240 80
WIRE 272 416 256 416
WIRE 272 416 272 160
WIRE 320 -48 240 -48
WIRE 320 32 320 -48
WIRE 320 160 272 160
WIRE 320 160 320 128
WIRE 320 176 320 160
WIRE 320 336 320 256
WIRE 320 368 320 336
WIRE 320 480 32 480
WIRE 320 480 320 432
WIRE 368 336 320 336
WIRE 400 -48 320 -48
WIRE 400 -16 400 -48
WIRE 400 112 400 64
WIRE 400 176 400 112
WIRE 448 112 400 112
WIRE 448 112 448 32
WIRE 448 176 400 176
WIRE 464 336 432 336
WIRE 464 368 464 336
WIRE 464 480 320 480
WIRE 464 480 464 448
WIRE 480 -48 400 -48
WIRE 480 144 480 -48
WIRE 480 240 400 240
WIRE 480 240 480 208
WIRE 480 256 480 240
WIRE 496 336 464 336
WIRE 528 192 512 192
WIRE 528 288 528 192
WIRE 544 32 448 32
WIRE 544 64 544 32
WIRE 544 160 512 160
WIRE 544 160 544 144
WIRE 576 -48 480 -48
WIRE 576 64 576 -48
WIRE 576 160 544 160
WIRE 576 160 576 144
WIRE 576 176 576 160
WIRE 576 288 528 288
WIRE 576 288 576 256
WIRE 576 336 560 336
WIRE 576 336 576 288
WIRE 576 368 576 336
WIRE 576 480 464 480
WIRE 576 480 576 448
WIRE 656 160 576 160
WIRE 656 272 656 160
WIRE 656 480 576 480
WIRE 656 480 656 336
WIRE 704 -208 704 -224
WIRE 704 -112 704 -144
WIRE 704 160 656 160
WIRE 704 384 704 160
WIRE 704 480 656 480
WIRE 704 480 704 448
WIRE 720 -32 704 -32
WIRE 720 0 704 0
WIRE 720 32 544 32
WIRE 768 -224 704 -224
WIRE 896 -224 848 -224
WIRE 960 416 944 416
WIRE 976 96 944 96
WIRE 976 128 944 128
WIRE 976 160 944 160
WIRE 976 192 944 192
WIRE 976 224 944 224
WIRE 976 256 944 256
WIRE 976 288 944 288
WIRE 976 320 944 320
WIRE 976 352 944 352
WIRE 976 384 944 384
WIRE 1072 128 1056 128
WIRE 1072 192 1056 192
WIRE 1072 256 1056 256
WIRE 1072 320 1056 320
WIRE 1072 384 1056 384
WIRE 1088 96 1056 96
WIRE 1088 160 1056 160
WIRE 1088 224 1056 224
WIRE 1088 288 1056 288
WIRE 1088 352 1056 352
FLAG 80 304 0
FLAG -64 512 0
FLAG 480 256 0
FLAG 192 448 Reset
IOPIN 192 448 Out
FLAG 704 -32 Reset
IOPIN 704 -32 In
FLAG 208 224 CkInh
IOPIN 208 224 Out
FLAG 704 0 CkInh
IOPIN 704 0 In
FLAG 1088 96 Led1
IOPIN 1088 96 Out
FLAG 1072 128 Led2
IOPIN 1072 128 Out
FLAG 1088 160 Led3
IOPIN 1088 160 Out
FLAG 1072 192 Led4
IOPIN 1072 192 Out
FLAG 1088 224 Led5
IOPIN 1088 224 Out
FLAG 1072 256 Led6
IOPIN 1072 256 Out
FLAG 1088 288 Led7
IOPIN 1088 288 Out
FLAG 1072 320 Led8
IOPIN 1072 320 Out
FLAG 1088 352 Led9
IOPIN 1088 352 Out
FLAG 1072 384 Led10
IOPIN 1072 384 Out
FLAG 16 48 0
FLAG 704 -112 0
FLAG 896 -224 Led1_10
IOPIN 896 -224 In
SYMBOL Comp5_All 80 128 R0
WINDOW 0 -30 65 Left 0
WINDOW 38 55 80 Left 0
SYMATTR InstName U1a
SYMATTR SpiceModel LM393
SYMBOL res -80 368 R0
SYMATTR InstName R1
SYMATTR Value 1e6
SYMATTR SpiceLine tol=1 pwr=0.1
SYMBOL res -80 -16 R0
SYMATTR InstName R2
SYMATTR Value 1e6
SYMATTR SpiceLine tol=1 pwr=0.1
SYMBOL res 64 320 R90
WINDOW 0 -14 46 VRight 0
WINDOW 3 42 44 VRight 0
SYMATTR InstName R3
SYMATTR Value 1e6
SYMATTR SpiceLine tol=1 pwr=0.1
SYMBOL res 112 80 R0
WINDOW 0 -26 32 Left 0
WINDOW 3 -31 63 Left 0
SYMATTR InstName R4
SYMATTR Value 1e6
SYMATTR SpiceLine tol=1 pwr=0.1
SYMBOL diode 192 96 R0
WINDOW 0 -47 34 Left 0
WINDOW 3 -53 62 Left 0
SYMATTR InstName D1
SYMATTR Value 1N914
SYMBOL res -16 64 R0
WINDOW 0 -35 46 Left 0
WINDOW 3 -37 66 Left 0
SYMATTR InstName R5
SYMATTR Value 15K
SYMATTR SpiceLine tol=1 pwr=0.1
SYMBOL cap -16 224 R0
WINDOW 0 -37 31 Left 0
WINDOW 3 41 33 Left 0
SYMATTR InstName C1
SYMATTR Value 47n
SYMBOL res 240 320 R90
WINDOW 0 -14 46 VRight 0
WINDOW 3 42 44 VRight 0
SYMATTR InstName R6
SYMATTR Value 1K
SYMATTR SpiceLine tol=1 pwr=0.1
SYMBOL pnp2 256 128 M180
WINDOW 0 10 100 Left 0
WINDOW 3 18 47 Left 0
SYMATTR InstName Q1
SYMATTR Value 2N3906
SYMBOL res 224 -48 R0
WINDOW 0 -38 46 Left 0
WINDOW 3 -39 73 Left 0
SYMATTR InstName R7
SYMATTR Value 1K
SYMATTR SpiceLine tol=1 pwr=0.1
SYMBOL res 304 160 R0
WINDOW 0 29 48 Left 0
WINDOW 3 29 86 Left 0
SYMATTR InstName R8
SYMATTR Value 270
SYMATTR SpiceLine tol=1 pwr=0.1
SYMBOL diode 304 368 R0
WINDOW 0 42 36 Left 0
WINDOW 3 20 62 Left 0
SYMATTR InstName D2
SYMATTR Value 1N914
SYMBOL Comp5_All 480 112 M0
WINDOW 0 -30 65 Left 0
WINDOW 38 7 31 Left 0
SYMATTR InstName U1b
SYMATTR SpiceModel LM393
SYMBOL cap 432 320 R90
WINDOW 0 -1 32 VBottom 0
WINDOW 3 32 32 VTop 0
SYMATTR InstName C2
SYMATTR Value 47n
SYMBOL cap 560 320 R90
WINDOW 0 -1 31 VBottom 0
WINDOW 3 35 32 VTop 0
SYMATTR InstName C3
SYMATTR Value 10n
SYMBOL ind 448 352 R0
WINDOW 0 37 52 Left 0
WINDOW 3 38 83 Left 0
SYMATTR InstName Ltest
SYMATTR Value 2m
SYMATTR SpiceLine Rpar=0
SYMBOL res 560 352 R0
WINDOW 0 33 47 Left 0
WINDOW 3 30 83 Left 0
SYMATTR InstName R10
SYMATTR Value 150K
SYMATTR SpiceLine tol=1 pwr=0.1
SYMBOL res 560 160 R0
WINDOW 0 36 47 Left 0
WINDOW 3 35 85 Left 0
SYMATTR InstName R11
SYMATTR Value 68K
SYMATTR SpiceLine tol=1 pwr=0.1
SYMBOL diode 640 272 R0
WINDOW 0 -55 39 Left 0
WINDOW 3 -56 63 Left 0
SYMATTR InstName D3
SYMATTR Value 1N914
SYMBOL res 560 48 R0
WINDOW 0 27 49 Left 0
WINDOW 3 27 84 Left 0
SYMATTR InstName R12
SYMATTR Value 10K
SYMATTR SpiceLine tol=1 pwr=0.1
SYMBOL cap 688 384 R0
WINDOW 0 -20 8 Left 0
WINDOW 3 -27 57 Left 0
SYMATTR InstName C4
SYMATTR Value 47n
SYMBOL cap 384 176 R0
WINDOW 0 22 15 Left 0
WINDOW 3 24 50 Left 0
SYMATTR InstName C5
SYMATTR Value 100p
SYMBOL res 528 48 R0
WINDOW 0 -33 32 Left 0
WINDOW 3 -34 67 Left 0
SYMATTR InstName R13
SYMATTR Value 1e6
SYMATTR SpiceLine tol=1 pwr=0.1
SYMBOL res 384 -32 R0
WINDOW 0 -38 30 Left 0
WINDOW 3 -37 66 Left 0
SYMATTR InstName R14
SYMATTR Value 10K
SYMATTR SpiceLine tol=1 pwr=0.1
SYMBOL cap 256 400 R90
WINDOW 0 -10 44 VRight 0
WINDOW 3 -10 -13 VRight 0
SYMATTR InstName C6
SYMATTR Value 100p
SYMBOL res 160 400 R90
WINDOW 0 -15 46 VRight 0
WINDOW 3 52 41 VRight 0
SYMATTR InstName R15
SYMATTR Value 47K
SYMATTR SpiceLine tol=1 pwr=0.1
SYMBOL voltage -112 160 R0
WINDOW 0 -24 57 Left 0
WINDOW 3 22 -50 VRight 0
WINDOW 123 0 0 Left 0
WINDOW 39 21 95 VRight 0
SYMATTR InstName Vbat
SYMATTR Value {Vdd}
SYMATTR SpiceLine Rser=1
SYMBOL Dig_Add\\dview10 992 240 R0
SYMATTR InstName U1
SYMBOL polcap 0 -32 R0
WINDOW 3 24 64 Left 0
SYMATTR Value 100µ
SYMATTR InstName C7
SYMATTR Description Capacitor
SYMATTR Type cap
SYMATTR SpiceLine V=10 Irms=4.2 Rser=0.01 MTBF=0 Lser=1.9f mfg="KEMET" pn="A700X107M010ATE010" type="Al electrolytic" ppPkg=1
SYMBOL LED 688 -208 R0
WINDOW 0 31 71 Left 0
WINDOW 3 22 73 Invisible 0
SYMATTR InstName DLed
SYMATTR Value NSPW500BS
SYMATTR Description Diode
SYMATTR Type diode
SYMBOL res 864 -240 R90
WINDOW 0 59 78 VBottom 0
WINDOW 3 33 34 VTop 0
SYMATTR InstName R9
SYMATTR Value 1K
SYMATTR SpiceLine tol=1 pwr=0.1
SYMBOL Dig_Add\\CD4xxx\\CD4017B 832 -96 R0
SYMATTR InstName U2
TEXT -114 -72 Left 0 !.tran 0 100m 50m startup
TEXT 944 0 Left 0 !.param Vdd=9
TEXT -112 -240 Left 0 ;Medidor de Q en bobinados:\nProbador de Flybacks (sacarlos de la plaqueta y medir entre\nlos extremos del primario; R5=15K, para primarios de flybacks,\npuede cambiarse por un potenciómetro de 100K y ajustarse\n(hacer un dial) para otros tipos de inductores, por prueba.\nLed1 a Led4=rojos, Led5 a Led7=amarillos y Led 8 a Led10=verdes.
