Version 4
SHEET 1 924 756
WIRE 416 0 352 0
WIRE 496 0 480 0
WIRE 128 16 64 16
WIRE -496 64 -496 32
WIRE -320 64 -320 32
WIRE 352 64 352 0
WIRE 368 64 352 64
WIRE 496 64 496 0
WIRE 496 64 448 64
WIRE 80 80 80 0
WIRE 240 80 80 80
WIRE 0 96 0 16
WIRE 48 96 0 96
WIRE 128 112 128 16
WIRE 128 112 112 112
WIRE 256 112 208 112
WIRE -160 128 -224 128
WIRE -128 128 -160 128
WIRE 0 128 0 96
WIRE 0 128 -48 128
WIRE 48 128 32 128
WIRE 240 128 240 80
WIRE 256 128 240 128
WIRE 256 144 208 144
WIRE 352 144 352 64
WIRE 352 144 320 144
WIRE 416 144 352 144
WIRE -496 160 -496 144
WIRE -448 160 -496 160
WIRE -320 160 -320 144
WIRE -320 160 -368 160
WIRE -224 160 -224 128
WIRE 32 160 32 128
WIRE 80 160 80 144
WIRE 80 160 32 160
WIRE 256 160 240 160
WIRE 384 160 320 160
WIRE 496 160 496 64
WIRE 496 160 480 160
WIRE -320 176 -320 160
WIRE 80 176 80 160
WIRE 384 176 384 160
WIRE 416 176 384 176
WIRE -496 192 -496 160
WIRE 240 192 240 160
WIRE 0 208 0 128
WIRE 208 208 208 144
WIRE 208 208 0 208
WIRE 384 208 384 176
WIRE 448 208 448 192
WIRE 448 208 384 208
WIRE 448 240 448 208
WIRE -224 256 -224 240
WIRE -160 288 -160 128
WIRE -160 288 -704 288
WIRE 64 288 -160 288
WIRE 768 352 704 352
WIRE 848 352 832 352
WIRE -128 368 -192 368
WIRE -48 368 -64 368
WIRE 480 368 416 368
WIRE -416 384 -480 384
WIRE 704 416 704 352
WIRE 720 416 704 416
WIRE 848 416 848 352
WIRE 848 416 800 416
WIRE -192 432 -192 368
WIRE -176 432 -192 432
WIRE -48 432 -48 368
WIRE -48 432 -96 432
WIRE 432 432 432 352
WIRE 592 432 432 432
WIRE -464 448 -464 368
WIRE -304 448 -464 448
WIRE 352 448 352 368
WIRE 400 448 352 448
WIRE -544 464 -544 384
WIRE -496 464 -544 464
WIRE 480 464 480 368
WIRE 480 464 464 464
WIRE 608 464 560 464
WIRE -416 480 -416 384
WIRE -416 480 -432 480
WIRE -288 480 -336 480
WIRE 64 480 64 288
WIRE 80 480 64 480
WIRE 224 480 160 480
WIRE 256 480 224 480
WIRE 352 480 352 448
WIRE 352 480 336 480
WIRE 400 480 384 480
WIRE 592 480 592 432
WIRE 608 480 592 480
WIRE -704 496 -704 288
WIRE -672 496 -704 496
WIRE -544 496 -544 464
WIRE -544 496 -592 496
WIRE -496 496 -512 496
WIRE -304 496 -304 448
WIRE -288 496 -304 496
WIRE 608 496 560 496
WIRE 704 496 704 416
WIRE 704 496 672 496
WIRE 768 496 704 496
WIRE -288 512 -336 512
WIRE -192 512 -192 432
WIRE -192 512 -224 512
WIRE -128 512 -192 512
WIRE 384 512 384 480
WIRE 432 512 432 496
WIRE 432 512 384 512
WIRE 608 512 592 512
WIRE 736 512 672 512
WIRE 848 512 848 416
WIRE 848 512 832 512
WIRE -512 528 -512 496
WIRE -464 528 -464 512
WIRE -464 528 -512 528
WIRE -288 528 -304 528
WIRE -160 528 -224 528
WIRE -48 528 -48 432
WIRE -48 528 -64 528
WIRE 432 528 432 512
WIRE 736 528 736 512
WIRE 768 528 736 528
WIRE -464 544 -464 528
WIRE -160 544 -160 528
WIRE -128 544 -160 544
WIRE 592 544 592 512
WIRE -304 560 -304 528
WIRE 64 560 64 480
WIRE 224 560 224 480
WIRE 352 560 352 480
WIRE 560 560 560 496
WIRE 560 560 352 560
WIRE 736 560 736 528
WIRE 800 560 800 544
WIRE 800 560 736 560
WIRE -704 576 -704 496
WIRE -672 576 -704 576
WIRE -544 576 -544 496
WIRE -544 576 -592 576
WIRE -336 576 -336 512
WIRE -336 576 -544 576
WIRE -160 576 -160 544
WIRE -96 576 -96 560
WIRE -96 576 -160 576
WIRE 800 592 800 560
WIRE -96 608 -96 576
FLAG -320 32 V_iso
FLAG 80 0 V_iso
FLAG -496 32 VCC
FLAG 448 128 VCC
FLAG -496 192 COM
FLAG -320 176 0
FLAG -224 256 0
FLAG 80 176 0
FLAG 240 192 0
FLAG 448 240 COM
FLAG -464 368 V_iso
FLAG -96 496 VCC
FLAG -464 544 0
FLAG -304 560 0
FLAG -96 608 COM
FLAG 432 352 V_iso
FLAG 800 480 VCC
FLAG 432 528 0
FLAG 592 544 0
FLAG 800 592 COM
SYMBOL HCNR200 288 144 R0
WINDOW 3 27 41 Center 0
WINDOW 0 -32 -58 Left 0
SYMATTR InstName U4
SYMBOL AD822A 80 48 R0
WINDOW 0 -65 32 Left 0
WINDOW 3 20 125 Left 0
SYMATTR InstName U5
SYMBOL res 112 128 R270
WINDOW 0 54 55 VTop 0
WINDOW 3 0 56 VBottom 0
SYMATTR InstName R16
SYMATTR Value 332
SYMBOL cap 64 0 R90
WINDOW 0 0 32 VBottom 0
WINDOW 3 32 32 VTop 0
SYMATTR InstName C11
SYMATTR Value 0.1µ
SYMBOL res -32 112 R90
WINDOW 0 0 56 VBottom 0
WINDOW 3 32 56 VTop 0
SYMATTR InstName R17
SYMATTR Value 100k
SYMBOL res 464 48 R90
WINDOW 0 0 56 VBottom 0
WINDOW 3 32 56 VTop 0
SYMATTR InstName R18
SYMATTR Value 100k
SYMBOL AD822A 448 96 R0
WINDOW 0 -65 32 Left 0
WINDOW 3 20 125 Left 0
SYMATTR InstName U6
SYMBOL Misc\\battery -320 48 R0
WINDOW 3 38 58 Left 0
SYMATTR Value 14V
SYMATTR InstName V1
SYMBOL Misc\\battery -496 48 R0
WINDOW 3 38 58 Left 0
SYMATTR Value 5V
SYMATTR InstName V2
SYMBOL cap 480 -16 R90
WINDOW 0 0 32 VBottom 0
WINDOW 3 32 32 VTop 0
SYMATTR InstName C12
SYMATTR Value 1n
SYMBOL voltage -224 144 R0
WINDOW 123 0 0 Left 0
WINDOW 39 0 0 Left 0
WINDOW 3 -453 94 Left 0
SYMATTR Value PULSE(0 0.333 500m 15m 15m 88m 320m)
SYMATTR InstName V3
SYMBOL res -352 144 R90
WINDOW 0 0 56 VBottom 0
WINDOW 3 32 56 VTop 0
SYMATTR InstName R1
SYMATTR Value 100MEG
SYMBOL HCNR200 -256 512 R0
WINDOW 3 27 41 Center 0
WINDOW 0 -32 -58 Left 0
SYMATTR InstName U1
SYMBOL AD822A -464 416 R0
WINDOW 0 -65 32 Left 0
WINDOW 3 20 125 Left 0
SYMATTR InstName U2
SYMBOL res -432 496 R270
WINDOW 0 54 55 VTop 0
WINDOW 3 0 56 VBottom 0
SYMATTR InstName R2
SYMATTR Value 332
SYMBOL cap -480 368 R90
WINDOW 0 0 32 VBottom 0
WINDOW 3 32 32 VTop 0
SYMATTR InstName C1
SYMATTR Value 0.01µ
SYMBOL res -576 480 R90
WINDOW 0 0 56 VBottom 0
WINDOW 3 32 56 VTop 0
SYMATTR InstName R3
SYMATTR Value 10k
SYMBOL res -80 416 R90
WINDOW 0 0 56 VBottom 0
WINDOW 3 32 56 VTop 0
SYMATTR InstName R4
SYMATTR Value 100k
SYMBOL AD822A -96 464 R0
WINDOW 0 -65 32 Left 0
WINDOW 3 20 125 Left 0
SYMATTR InstName U3
SYMBOL cap -64 352 R90
WINDOW 0 0 32 VBottom 0
WINDOW 3 32 32 VTop 0
SYMATTR InstName C2
SYMATTR Value 1n
SYMBOL res -576 560 R90
WINDOW 0 0 56 VBottom 0
WINDOW 3 32 56 VTop 0
SYMATTR InstName R5
SYMATTR Value 49.9k
SYMBOL HCNR200 640 496 R0
WINDOW 3 27 41 Center 0
WINDOW 0 -32 -58 Left 0
SYMATTR InstName U7
SYMBOL AD822A 432 400 R0
WINDOW 0 -65 32 Left 0
WINDOW 3 20 125 Left 0
SYMATTR InstName U8
SYMBOL res 464 480 R270
WINDOW 0 54 55 VTop 0
WINDOW 3 0 56 VBottom 0
SYMATTR InstName R6
SYMATTR Value 332
SYMBOL cap 416 352 R90
WINDOW 0 0 32 VBottom 0
WINDOW 3 32 32 VTop 0
SYMATTR InstName C3
SYMATTR Value 0.01µ
SYMBOL res 176 464 R90
WINDOW 0 0 56 VBottom 0
WINDOW 3 32 56 VTop 0
SYMATTR InstName R7
SYMATTR Value 2k
SYMBOL res 816 400 R90
WINDOW 0 0 56 VBottom 0
WINDOW 3 32 56 VTop 0
SYMATTR InstName R8
SYMATTR Value 100k
SYMBOL AD822A 800 448 R0
WINDOW 0 -65 32 Left 0
WINDOW 3 20 125 Left 0
SYMATTR InstName U9
SYMBOL cap 832 336 R90
WINDOW 0 0 32 VBottom 0
WINDOW 3 32 32 VTop 0
SYMATTR InstName C4
SYMATTR Value 1n
SYMBOL res 160 544 R90
WINDOW 0 0 56 VBottom 0
WINDOW 3 32 56 VTop 0
SYMATTR InstName R9
SYMATTR Value 49.9k
SYMBOL res 240 544 R90
WINDOW 0 0 56 VBottom 0
WINDOW 3 32 56 VTop 0
SYMATTR InstName R10
SYMATTR Value 20k
SYMBOL res 352 464 R90
WINDOW 0 0 56 VBottom 0
WINDOW 3 32 56 VTop 0
SYMATTR InstName R11
SYMATTR Value 4.99k
TEXT -696 -88 Left 0 !.tran 0 2 0.5 startup
