Version 4
SHEET 1 2684 680
WIRE 800 -176 800 -192
WIRE 800 48 800 32
WIRE 864 -352 864 -384
WIRE 864 -336 864 -352
WIRE 1040 -96 1040 -128
WIRE 1136 -128 1040 -128
WIRE 1184 -240 1184 -288
WIRE 1184 -208 1184 -240
WIRE 1184 -80 1184 -112
WIRE 1184 -16 1184 -80
WIRE 1184 112 1184 80
WIRE 1376 -304 1232 -304
WIRE 1376 64 1232 64
WIRE 1504 -304 1376 -304
WIRE 1504 64 1376 64
WIRE 1552 -240 1552 -288
WIRE 1552 -208 1552 -240
WIRE 1552 -80 1184 -80
WIRE 1552 -80 1552 -112
WIRE 1552 -16 1552 -80
WIRE 1552 112 1552 80
WIRE 1680 -128 1600 -128
WIRE 1680 -96 1680 -128
WIRE 1920 -96 1920 -128
WIRE 2016 -128 1920 -128
WIRE 2064 -240 2064 -288
WIRE 2064 -208 2064 -240
WIRE 2064 -80 2064 -112
WIRE 2064 -16 2064 -80
WIRE 2064 112 2064 80
WIRE 2256 -304 2112 -304
WIRE 2256 64 2112 64
WIRE 2384 -304 2256 -304
WIRE 2384 64 2256 64
WIRE 2432 -240 2432 -288
WIRE 2432 -208 2432 -240
WIRE 2432 -80 2064 -80
WIRE 2432 -80 2432 -112
WIRE 2432 -16 2432 -80
WIRE 2432 112 2432 80
WIRE 2560 -128 2480 -128
WIRE 2560 -96 2560 -128
FLAG 864 -256 0
FLAG 864 -352 VDD
FLAG 1552 -160 0
FLAG 1552 112 0
FLAG 1184 -160 0
FLAG 1552 -384 VDD
FLAG 1552 -336 VDD
FLAG 1184 -336 VDD
FLAG 800 -192 VDD
FLAG 800 48 0
FLAG 1040 -16 0
FLAG 1184 -384 VDD
FLAG 1552 32 0
FLAG 1680 -16 0
FLAG 880 -32 Vbiasn
FLAG 880 -112 Vbiasp
FLAG 1184 112 0
FLAG 1184 32 0
FLAG 1376 64 Vbiasn
FLAG 1376 -304 Vbiasp
FLAG 1184 -240 out1
FLAG 1552 -240 out2
FLAG 2432 -160 0
FLAG 2432 112 0
FLAG 2064 -160 0
FLAG 2432 -384 VDD
FLAG 2432 -336 VDD
FLAG 2064 -336 VDD
FLAG 1920 -16 0
FLAG 2064 -384 VDD
FLAG 2432 32 0
FLAG 2560 -16 0
FLAG 2064 112 0
FLAG 2064 32 0
FLAG 2256 64 Vbiasn
FLAG 2256 -304 Vbiasp
FLAG 2064 -240 out3
FLAG 2432 -240 out4
SYMBOL voltage 864 -352 R0
WINDOW 123 0 0 Left 0
WINDOW 39 0 0 Left 0
SYMATTR InstName VDD
SYMATTR Value 1
SYMBOL nmos4 1600 -208 M0
WINDOW 123 56 100 Left 0
SYMATTR Value2 l=50n w=500n
SYMATTR InstName M2
SYMATTR Value N_50n
SYMBOL nmos4 1136 -208 R0
WINDOW 123 56 100 Left 0
SYMATTR Value2 l=50n w=500n
SYMATTR InstName M1
SYMATTR Value N_50n
SYMBOL pmos4 1504 -384 R0
WINDOW 123 58 102 Left 0
WINDOW 0 56 16 Left 0
SYMATTR Value2 l=50n w=1u
SYMATTR InstName M4
SYMATTR Value P_50n
SYMBOL pmos4 1232 -384 M0
WINDOW 123 58 102 Left 0
WINDOW 0 56 16 Left 0
SYMATTR Value2 l=50n w=1u
SYMATTR InstName M3
SYMATTR Value P_50n
SYMBOL voltage 1040 -112 R0
WINDOW 0 39 43 Left 0
WINDOW 123 38 75 Left 0
WINDOW 39 0 0 Left 0
WINDOW 3 39 71 Left 0
SYMATTR InstName VCM1
SYMATTR Value 500m
SYMBOL nmos4 1504 -16 R0
WINDOW 123 56 100 Left 0
SYMATTR Value2 l=50n w=500n
SYMATTR InstName M6T
SYMATTR Value N_50n
SYMBOL voltage 1680 -112 R0
WINDOW 0 45 42 Left 0
WINDOW 3 40 70 Left 0
WINDOW 123 0 0 Left 0
WINDOW 39 0 0 Left 0
SYMATTR InstName VCM
SYMATTR Value 500m
SYMBOL Fig_26_3 736 -64 R0
SYMATTR InstName U1
SYMBOL nmos4 1232 -16 M0
WINDOW 123 56 100 Left 0
SYMATTR Value2 l=50n w=500n
SYMATTR InstName M5
SYMATTR Value N_50n
SYMBOL nmos4 2480 -208 M0
WINDOW 123 56 100 Left 0
SYMATTR Value2 l=50n w=500n
SYMATTR InstName M6
SYMATTR Value N_50n
SYMBOL nmos4 2016 -208 R0
WINDOW 123 56 100 Left 0
SYMATTR Value2 l=50n w=500n
SYMATTR InstName M7
SYMATTR Value N_50n
SYMBOL pmos4 2384 -384 R0
WINDOW 123 58 102 Left 0
WINDOW 0 56 16 Left 0
SYMATTR Value2 l=50n w=1u
SYMATTR InstName M8
SYMATTR Value P_50n
SYMBOL pmos4 2112 -384 M0
WINDOW 123 58 102 Left 0
WINDOW 0 56 16 Left 0
SYMATTR Value2 l=50n w=1u
SYMATTR InstName M9
SYMATTR Value P_50n
SYMBOL voltage 1920 -112 R0
WINDOW 0 39 43 Left 0
WINDOW 123 38 75 Left 0
WINDOW 39 0 0 Left 0
WINDOW 3 39 71 Left 0
SYMATTR InstName VCM2
SYMATTR Value 450m
SYMBOL nmos4 2384 -16 R0
WINDOW 123 56 100 Left 0
SYMATTR Value2 l=50n w=500n
SYMATTR InstName M10
SYMATTR Value N_50n
SYMBOL voltage 2560 -112 R0
WINDOW 0 45 42 Left 0
WINDOW 3 40 70 Left 0
WINDOW 123 0 0 Left 0
WINDOW 39 0 0 Left 0
SYMATTR InstName VCM3
SYMATTR Value 500m
SYMBOL nmos4 2112 -16 M0
WINDOW 123 56 100 Left 0
SYMATTR Value2 l=50n w=500n
SYMATTR InstName M11
SYMATTR Value N_50n
TEXT 712 96 Left 0 !.lib cmosedu_models.txt
TEXT 688 -344 Left 0 ;Plot Vout
TEXT 712 144 Left 0 !.op
