Version 4
SHEET 1 3276 916
WIRE 800 -176 800 -192
WIRE 800 48 800 32
WIRE 864 -352 864 -384
WIRE 864 -336 864 -352
WIRE 1040 -96 1040 -128
WIRE 1040 688 1040 656
WIRE 1136 -128 1040 -128
WIRE 1136 656 1040 656
WIRE 1184 -320 1184 -384
WIRE 1184 -240 1184 -320
WIRE 1184 -208 1184 -240
WIRE 1184 -80 1184 -112
WIRE 1184 -16 1184 -80
WIRE 1184 112 1184 80
WIRE 1184 464 1184 400
WIRE 1184 544 1184 464
WIRE 1184 576 1184 544
WIRE 1184 704 1184 672
WIRE 1184 768 1184 704
WIRE 1184 896 1184 864
WIRE 1376 -400 1232 -400
WIRE 1376 -272 1376 -400
WIRE 1376 384 1232 384
WIRE 1376 512 1376 384
WIRE 1696 64 1232 64
WIRE 1696 64 1696 -208
WIRE 1696 848 1232 848
WIRE 1696 848 1696 576
WIRE 1824 -400 1376 -400
WIRE 1824 64 1696 64
WIRE 1824 384 1376 384
WIRE 1824 848 1696 848
WIRE 1872 -304 1872 -384
WIRE 1872 -240 1872 -304
WIRE 1872 -208 1872 -240
WIRE 1872 -80 1184 -80
WIRE 1872 -80 1872 -112
WIRE 1872 -16 1872 -80
WIRE 1872 112 1872 80
WIRE 1872 496 1872 400
WIRE 1872 544 1872 496
WIRE 1872 576 1872 544
WIRE 1872 704 1184 704
WIRE 1872 704 1872 672
WIRE 1872 768 1872 704
WIRE 1872 896 1872 864
WIRE 2000 -128 1920 -128
WIRE 2000 -96 2000 -128
WIRE 2000 656 1920 656
WIRE 2000 688 2000 656
FLAG 864 -256 0
FLAG 864 -352 VDD
FLAG 1872 -160 0
FLAG 1872 112 0
FLAG 1184 -160 0
FLAG 1872 -480 VDD
FLAG 1872 -432 VDD
FLAG 1184 -432 VDD
FLAG 800 -192 VDD
FLAG 800 48 0
FLAG 1040 -16 0
FLAG 1184 -480 VDD
FLAG 1872 32 0
FLAG 2000 -16 0
FLAG 880 -32 Vbiasn
FLAG 880 -112 Vbiasp
FLAG 1184 112 0
FLAG 1184 32 0
FLAG 1376 -400 Vbiasp
FLAG 1184 -240 out1
FLAG 1872 -240 out2
FLAG 1536 -128 0
FLAG 1376 -208 out1
FLAG 1376 -176 out2
FLAG 1536 -320 VDD
FLAG 1872 624 0
FLAG 1872 896 0
FLAG 1184 624 0
FLAG 1872 304 VDD
FLAG 1872 352 VDD
FLAG 1184 352 VDD
FLAG 1040 768 0
FLAG 1184 304 VDD
FLAG 1872 816 0
FLAG 2000 768 0
FLAG 1184 896 0
FLAG 1184 816 0
FLAG 1376 384 Vbiasp
FLAG 1184 544 out3
FLAG 1872 544 out4
FLAG 1536 656 0
FLAG 1376 576 out3
FLAG 1376 608 out4
FLAG 1536 464 VDD
FLAG 1936 -304 0
FLAG 1936 496 0
FLAG 1120 -320 0
FLAG 1120 464 0
SYMBOL voltage 864 -352 R0
WINDOW 123 0 0 Left 0
WINDOW 39 0 0 Left 0
SYMATTR InstName VDD
SYMATTR Value 1
SYMBOL nmos4 1920 -208 M0
WINDOW 123 56 100 Left 0
SYMATTR Value2 l=50n w=500n
SYMATTR InstName M2
SYMATTR Value N_50n
SYMBOL nmos4 1136 -208 R0
WINDOW 123 56 100 Left 0
SYMATTR Value2 l=50n w=500n
SYMATTR InstName M1
SYMATTR Value N_50n
SYMBOL pmos4 1824 -480 R0
WINDOW 123 58 102 Left 0
WINDOW 0 56 16 Left 0
SYMATTR Value2 l=50n w=1u
SYMATTR InstName M4
SYMATTR Value P_50n
SYMBOL pmos4 1232 -480 M0
WINDOW 123 58 102 Left 0
WINDOW 0 56 16 Left 0
SYMATTR Value2 l=50n w=1u
SYMATTR InstName M3
SYMATTR Value P_50n
SYMBOL voltage 1040 -112 R0
WINDOW 0 39 43 Left 0
WINDOW 123 38 75 Left 0
WINDOW 39 0 0 Left 0
WINDOW 3 39 71 Left 0
SYMATTR InstName VCM1
SYMATTR Value 500m
SYMBOL nmos4 1824 -16 R0
WINDOW 123 56 100 Left 0
SYMATTR Value2 l=50n w=500n
SYMATTR InstName M6T
SYMATTR Value N_50n
SYMBOL voltage 2000 -112 R0
WINDOW 0 45 42 Left 0
WINDOW 3 40 70 Left 0
WINDOW 123 0 0 Left 0
WINDOW 39 0 0 Left 0
SYMATTR InstName VCM
SYMATTR Value 500m
SYMBOL Fig_26_3 736 -64 R0
SYMATTR InstName U1
SYMBOL nmos4 1232 -16 M0
WINDOW 123 56 100 Left 0
SYMATTR Value2 l=50n w=500n
SYMATTR InstName M5
SYMATTR Value N_50n
SYMBOL Fig_26_9 1488 -208 R0
SYMATTR InstName U2
SYMBOL nmos4 1920 576 M0
WINDOW 123 56 100 Left 0
SYMATTR Value2 l=50n w=500n
SYMATTR InstName M6
SYMATTR Value N_50n
SYMBOL nmos4 1136 576 R0
WINDOW 123 56 100 Left 0
SYMATTR Value2 l=50n w=500n
SYMATTR InstName M7
SYMATTR Value N_50n
SYMBOL pmos4 1824 304 R0
WINDOW 123 58 102 Left 0
WINDOW 0 56 16 Left 0
SYMATTR Value2 l=50n w=1u
SYMATTR InstName M8
SYMATTR Value P_50n
SYMBOL pmos4 1232 304 M0
WINDOW 123 58 102 Left 0
WINDOW 0 56 16 Left 0
SYMATTR Value2 l=50n w=1u
SYMATTR InstName M9
SYMATTR Value P_50n
SYMBOL voltage 1040 672 R0
WINDOW 0 39 43 Left 0
WINDOW 123 38 75 Left 0
WINDOW 39 0 0 Left 0
WINDOW 3 39 71 Left 0
SYMATTR InstName VCM2
SYMATTR Value 450m
SYMBOL nmos4 1824 768 R0
WINDOW 123 56 100 Left 0
SYMATTR Value2 l=50n w=500n
SYMATTR InstName M10
SYMATTR Value N_50n
SYMBOL voltage 2000 672 R0
WINDOW 0 45 42 Left 0
WINDOW 3 40 70 Left 0
WINDOW 123 0 0 Left 0
WINDOW 39 0 0 Left 0
SYMATTR InstName VCM3
SYMATTR Value 500m
SYMBOL nmos4 1232 768 M0
WINDOW 123 56 100 Left 0
SYMATTR Value2 l=50n w=500n
SYMATTR InstName M11
SYMATTR Value N_50n
SYMBOL Fig_26_9 1488 576 R0
SYMATTR InstName U3
SYMBOL cap 1872 -320 M90
WINDOW 0 0 32 VBottom 0
WINDOW 3 32 32 VTop 0
SYMATTR InstName C1
SYMATTR Value 100f
SYMBOL cap 1872 480 M90
WINDOW 0 0 32 VBottom 0
WINDOW 3 32 32 VTop 0
SYMATTR InstName C2
SYMATTR Value 100f
SYMBOL cap 1184 -336 R90
WINDOW 0 0 32 VBottom 0
WINDOW 3 32 32 VTop 0
SYMATTR InstName C3
SYMATTR Value 100f
SYMBOL cap 1184 448 R90
WINDOW 0 0 32 VBottom 0
WINDOW 3 32 32 VTop 0
SYMATTR InstName C4
SYMATTR Value 100f
TEXT 1120 168 Left 0 !.lib cmosedu_models.txt
TEXT 840 104 Left 0 !.op
