Version 4
SHEET 1 976 680
WIRE 368 0 192 0
WIRE 368 96 368 0
WIRE 192 112 192 80
WIRE 16 160 0 160
WIRE 112 160 96 160
WIRE 0 176 0 160
WIRE 240 176 224 176
WIRE 112 192 64 192
WIRE 64 224 64 192
WIRE 0 320 0 256
WIRE 64 320 64 304
WIRE 64 320 0 320
WIRE 192 320 192 208
WIRE 192 320 64 320
WIRE 368 320 368 176
WIRE 368 320 192 320
WIRE 0 336 0 320
FLAG 0 336 0
SYMBOL Mylib\\Infineon\\Nmos\\IPB017N06N3 160 160 R0
SYMATTR InstName U1
SYMBOL voltage 368 80 R0
WINDOW 123 0 0 Left 0
WINDOW 39 0 0 Left 0
SYMATTR InstName V1
SYMATTR Value 30
SYMBOL res 176 -16 R0
SYMATTR InstName R1
SYMATTR Value 1
SYMBOL res 0 176 R270
WINDOW 0 32 56 VTop 0
WINDOW 3 0 56 VBottom 0
SYMATTR InstName R2
SYMATTR Value 10
SYMBOL voltage 0 160 R0
WINDOW 3 24 104 Invisible 0
WINDOW 123 0 0 Left 0
WINDOW 39 0 0 Left 0
SYMATTR Value PULSE(0 15 0 50n 50n 10u 30u)
SYMATTR InstName V2
SYMBOL voltage 64 208 R0
WINDOW 123 0 0 Left 0
WINDOW 39 0 0 Left 0
SYMATTR InstName V3
SYMATTR Value 25
TEXT -104 -8 Left 0 !.tran 1
TEXT -104 -32 Left 0 !.options ABSTOL=10p ITL1=150 ITL2=150 ITL4=150
