Version 4
SHEET 1 6852 1988
WIRE 112 -16 112 -32
WIRE 112 80 112 64
WIRE 112 400 112 80
WIRE 112 816 112 400
WIRE 112 1136 112 816
WIRE 176 80 112 80
WIRE 176 176 176 80
WIRE 176 400 112 400
WIRE 176 496 176 400
WIRE 176 816 112 816
WIRE 176 912 176 816
WIRE 176 1136 112 1136
WIRE 176 1232 176 1136
WIRE 192 496 176 496
WIRE 208 176 176 176
WIRE 208 496 192 496
WIRE 208 912 176 912
WIRE 208 1232 176 1232
WIRE 272 -32 112 -32
WIRE 272 128 272 -32
WIRE 272 240 272 224
WIRE 272 336 272 320
WIRE 272 432 272 368
WIRE 272 448 272 432
WIRE 272 560 272 544
WIRE 272 656 272 640
WIRE 272 864 272 784
WIRE 272 976 272 960
WIRE 272 1072 272 1056
WIRE 272 1184 272 1104
WIRE 272 1296 272 1280
WIRE 272 1392 272 1376
WIRE 432 80 176 80
WIRE 432 176 432 80
WIRE 432 400 176 400
WIRE 432 496 432 400
WIRE 432 816 176 816
WIRE 432 912 432 816
WIRE 432 1136 176 1136
WIRE 432 1232 432 1136
WIRE 464 176 432 176
WIRE 464 496 432 496
WIRE 464 912 432 912
WIRE 464 1232 432 1232
WIRE 528 -32 272 -32
WIRE 528 128 528 -32
WIRE 528 240 528 224
WIRE 528 336 528 320
WIRE 528 368 272 368
WIRE 528 448 528 368
WIRE 528 560 528 544
WIRE 528 656 528 640
WIRE 528 784 272 784
WIRE 528 864 528 784
WIRE 528 976 528 960
WIRE 528 1072 528 1056
WIRE 528 1104 272 1104
WIRE 528 1184 528 1104
WIRE 528 1296 528 1280
WIRE 528 1392 528 1376
WIRE 688 80 432 80
WIRE 688 176 688 80
WIRE 688 400 432 400
WIRE 688 496 688 400
WIRE 688 816 432 816
WIRE 688 912 688 816
WIRE 688 1136 432 1136
WIRE 688 1232 688 1136
WIRE 720 176 688 176
WIRE 720 496 688 496
WIRE 720 912 688 912
WIRE 720 1232 688 1232
WIRE 784 -32 528 -32
WIRE 784 128 784 -32
WIRE 784 240 784 224
WIRE 784 336 784 320
WIRE 784 368 528 368
WIRE 784 448 784 368
WIRE 784 560 784 544
WIRE 784 656 784 640
WIRE 784 784 528 784
WIRE 784 864 784 784
WIRE 784 976 784 960
WIRE 784 1072 784 1056
WIRE 784 1104 528 1104
WIRE 784 1184 784 1104
WIRE 784 1296 784 1280
WIRE 784 1392 784 1376
WIRE 960 400 688 400
WIRE 960 496 960 400
WIRE 960 1136 688 1136
WIRE 960 1232 960 1136
WIRE 992 496 960 496
WIRE 992 1232 960 1232
WIRE 1056 368 784 368
WIRE 1056 448 1056 368
WIRE 1056 560 1056 544
WIRE 1056 656 1056 640
WIRE 1056 1104 784 1104
WIRE 1056 1184 1056 1104
WIRE 1056 1296 1056 1280
WIRE 1056 1392 1056 1376
WIRE 1232 80 688 80
WIRE 1232 176 1232 80
WIRE 1232 400 960 400
WIRE 1232 496 1232 400
WIRE 1232 816 688 816
WIRE 1232 912 1232 816
WIRE 1232 1136 960 1136
WIRE 1232 1232 1232 1136
WIRE 1264 176 1232 176
WIRE 1264 496 1232 496
WIRE 1264 912 1232 912
WIRE 1264 1232 1232 1232
WIRE 1328 -32 784 -32
WIRE 1328 128 1328 -32
WIRE 1328 240 1328 224
WIRE 1328 336 1328 320
WIRE 1328 368 1056 368
WIRE 1328 448 1328 368
WIRE 1328 560 1328 544
WIRE 1328 656 1328 640
WIRE 1328 784 784 784
WIRE 1328 864 1328 784
WIRE 1328 976 1328 960
WIRE 1328 1072 1328 1056
WIRE 1328 1104 1056 1104
WIRE 1328 1184 1328 1104
WIRE 1328 1296 1328 1280
WIRE 1328 1392 1328 1376
WIRE 1504 80 1232 80
WIRE 1504 176 1504 80
WIRE 1504 400 1232 400
WIRE 1504 496 1504 400
WIRE 1504 816 1232 816
WIRE 1504 912 1504 816
WIRE 1504 1136 1232 1136
WIRE 1504 1232 1504 1136
WIRE 1536 176 1504 176
WIRE 1536 496 1504 496
WIRE 1536 912 1504 912
WIRE 1536 1232 1504 1232
WIRE 1600 -32 1328 -32
WIRE 1600 128 1600 -32
WIRE 1600 240 1600 224
WIRE 1600 336 1600 320
WIRE 1600 368 1328 368
WIRE 1600 448 1600 368
WIRE 1600 560 1600 544
WIRE 1600 656 1600 640
WIRE 1600 784 1328 784
WIRE 1600 864 1600 784
WIRE 1600 976 1600 960
WIRE 1600 1072 1600 1056
WIRE 1600 1104 1328 1104
WIRE 1600 1184 1600 1104
WIRE 1600 1296 1600 1280
WIRE 1600 1392 1600 1376
WIRE 1776 400 1504 400
WIRE 1776 496 1776 400
WIRE 1776 1136 1504 1136
WIRE 1776 1232 1776 1136
WIRE 1808 496 1776 496
WIRE 1808 1232 1776 1232
WIRE 1872 368 1600 368
WIRE 1872 448 1872 368
WIRE 1872 560 1872 544
WIRE 1872 656 1872 640
WIRE 1872 1104 1600 1104
WIRE 1872 1184 1872 1104
WIRE 1872 1296 1872 1280
WIRE 1872 1392 1872 1376
WIRE 2048 80 1504 80
WIRE 2048 176 2048 80
WIRE 2048 400 1776 400
WIRE 2048 496 2048 400
WIRE 2048 816 1504 816
WIRE 2048 912 2048 816
WIRE 2048 1136 1776 1136
WIRE 2048 1232 2048 1136
WIRE 2080 176 2048 176
WIRE 2080 496 2048 496
WIRE 2080 912 2048 912
WIRE 2080 1232 2048 1232
WIRE 2144 -32 1600 -32
WIRE 2144 128 2144 -32
WIRE 2144 240 2144 224
WIRE 2144 336 2144 320
WIRE 2144 368 1872 368
WIRE 2144 448 2144 368
WIRE 2144 560 2144 544
WIRE 2144 656 2144 640
WIRE 2144 784 1600 784
WIRE 2144 864 2144 784
WIRE 2144 976 2144 960
WIRE 2144 1072 2144 1056
WIRE 2144 1104 1872 1104
WIRE 2144 1184 2144 1104
WIRE 2144 1296 2144 1280
WIRE 2144 1392 2144 1376
WIRE 2304 400 2048 400
WIRE 2304 496 2304 400
WIRE 2304 1136 2048 1136
WIRE 2304 1232 2304 1136
WIRE 2336 496 2304 496
WIRE 2336 1232 2304 1232
WIRE 2400 368 2144 368
WIRE 2400 448 2400 368
WIRE 2400 560 2400 544
WIRE 2400 656 2400 640
WIRE 2400 1104 2144 1104
WIRE 2400 1184 2400 1104
WIRE 2400 1296 2400 1280
WIRE 2400 1392 2400 1376
WIRE 2576 400 2304 400
WIRE 2576 496 2576 400
WIRE 2576 1136 2304 1136
WIRE 2576 1232 2576 1136
WIRE 2608 496 2576 496
WIRE 2608 1232 2576 1232
WIRE 2672 368 2400 368
WIRE 2672 448 2672 368
WIRE 2672 560 2672 544
WIRE 2672 656 2672 640
WIRE 2672 1104 2400 1104
WIRE 2672 1184 2672 1104
WIRE 2672 1296 2672 1280
WIRE 2672 1392 2672 1376
WIRE 2848 400 2576 400
WIRE 2848 496 2848 400
WIRE 2848 1136 2576 1136
WIRE 2848 1232 2848 1136
WIRE 2880 496 2848 496
WIRE 2880 1232 2848 1232
WIRE 2944 368 2672 368
WIRE 2944 448 2944 368
WIRE 2944 560 2944 544
WIRE 2944 656 2944 640
WIRE 2944 1104 2672 1104
WIRE 2944 1184 2944 1104
WIRE 2944 1296 2944 1280
WIRE 2944 1392 2944 1376
WIRE 3120 400 2848 400
WIRE 3120 496 3120 400
WIRE 3120 1136 2848 1136
WIRE 3120 1232 3120 1136
WIRE 3152 496 3120 496
WIRE 3152 1232 3120 1232
WIRE 3216 368 2944 368
WIRE 3216 448 3216 368
WIRE 3216 560 3216 544
WIRE 3216 656 3216 640
WIRE 3216 1104 2944 1104
WIRE 3216 1184 3216 1104
WIRE 3216 1296 3216 1280
WIRE 3216 1392 3216 1376
WIRE 3392 80 2048 80
WIRE 3392 176 3392 80
WIRE 3392 400 3120 400
WIRE 3392 496 3392 400
WIRE 3392 816 2048 816
WIRE 3392 912 3392 816
WIRE 3392 1136 3120 1136
WIRE 3392 1232 3392 1136
WIRE 3424 176 3392 176
WIRE 3424 496 3392 496
WIRE 3424 912 3392 912
WIRE 3424 1232 3392 1232
WIRE 3488 -32 2144 -32
WIRE 3488 128 3488 -32
WIRE 3488 240 3488 224
WIRE 3488 336 3488 320
WIRE 3488 368 3216 368
WIRE 3488 448 3488 368
WIRE 3488 560 3488 544
WIRE 3488 656 3488 640
WIRE 3488 784 2144 784
WIRE 3488 864 3488 784
WIRE 3488 976 3488 960
WIRE 3488 1072 3488 1056
WIRE 3488 1104 3216 1104
WIRE 3488 1184 3488 1104
WIRE 3488 1296 3488 1280
WIRE 3488 1392 3488 1376
WIRE 3664 -32 3488 -32
WIRE 3664 368 3488 368
WIRE 3664 368 3664 -32
WIRE 3664 784 3488 784
WIRE 3664 784 3664 368
WIRE 3664 1104 3488 1104
WIRE 3664 1104 3664 784
WIRE 3664 1296 3664 1104
WIRE 3664 1392 3664 1376
FLAG 3664 1392 0
FLAG 784 336 0
FLAG 784 1072 0
FLAG 1328 336 0
FLAG 1328 1072 0
FLAG 272 432 e
FLAG 192 496 b
FLAG 784 656 0
FLAG 784 1392 0
FLAG 1600 656 0
FLAG 1600 1392 0
FLAG 3216 1392 0
FLAG 3216 656 0
FLAG 3488 1392 0
FLAG 3488 656 0
FLAG 272 336 0
FLAG 272 1072 0
FLAG 528 336 0
FLAG 528 1072 0
FLAG 1600 336 0
FLAG 1600 1072 0
FLAG 3488 336 0
FLAG 3488 1072 0
FLAG 272 656 0
FLAG 272 1392 0
FLAG 528 656 0
FLAG 528 1392 0
FLAG 1056 656 0
FLAG 1056 1392 0
FLAG 1328 656 0
FLAG 1328 1392 0
FLAG 1872 656 0
FLAG 1872 1392 0
FLAG 2144 336 0
FLAG 2144 1072 0
FLAG 2144 656 0
FLAG 2144 1392 0
FLAG 2400 656 0
FLAG 2400 1392 0
FLAG 2672 656 0
FLAG 2672 1392 0
FLAG 2944 656 0
FLAG 2944 1392 0
SYMBOL voltage 112 -32 R0
WINDOW 0 -14 56 Left 0
WINDOW 3 24 104 Invisible 0
WINDOW 123 0 0 Left 0
WINDOW 39 0 0 Left 0
SYMATTR InstName Vbe
SYMATTR Value 1
SYMBOL voltage 3664 1280 R0
SYMATTR InstName V1
SYMATTR Value 5
SYMBOL voltage 784 224 R0
WINDOW 3 24 104 Invisible 0
WINDOW 123 0 0 Left 0
WINDOW 39 0 0 Left 0
SYMATTR Value 0
SYMATTR InstName Ic6bphi
SYMBOL voltage 784 960 R0
WINDOW 3 24 104 Invisible 0
WINDOW 123 0 0 Left 0
WINDOW 39 0 0 Left 0
SYMATTR Value 0
SYMATTR InstName Ic6bphibr
SYMBOL voltage 1328 224 R0
WINDOW 3 24 104 Invisible 0
WINDOW 123 0 0 Left 0
WINDOW 39 0 0 Left 0
SYMATTR Value 0
SYMATTR InstName Ic6adio
SYMBOL voltage 1328 960 R0
WINDOW 3 24 104 Invisible 0
WINDOW 123 0 0 Left 0
WINDOW 39 0 0 Left 0
SYMATTR Value 0
SYMATTR InstName Ic6adiobr
SYMBOL bc856x 720 224 M180
WINDOW 39 84 48 Left 0
SYMATTR InstName U5
SYMATTR SpiceModel BC856B
SYMBOL bc856x 720 960 M180
WINDOW 39 84 48 Left 0
SYMATTR InstName U6
SYMBOL bc856x 1264 224 M180
WINDOW 39 84 48 Left 0
SYMATTR SpiceLine QMODEL={DIO}
SYMATTR InstName U7
SYMATTR SpiceModel BC856A
SYMBOL bc856x 1264 960 M180
WINDOW 39 84 48 Left 0
SYMATTR SpiceLine QMODEL={DIO}
SYMATTR InstName U8
SYMATTR SpiceModel BC856A_BEBR_P
SYMBOL voltage 784 544 R0
WINDOW 3 24 104 Invisible 0
WINDOW 123 0 0 Left 0
WINDOW 39 0 0 Left 0
SYMATTR Value 0
SYMATTR InstName Ic7bphi
SYMBOL voltage 784 1280 R0
WINDOW 3 24 104 Invisible 0
WINDOW 123 0 0 Left 0
WINDOW 39 0 0 Left 0
SYMATTR Value 0
SYMATTR InstName Ic7bphibr
SYMBOL voltage 1600 544 R0
WINDOW 3 24 104 Invisible 0
WINDOW 123 0 0 Left 0
WINDOW 39 0 0 Left 0
SYMATTR Value 0
SYMATTR InstName Ic7bdio
SYMBOL voltage 1600 1280 R0
WINDOW 3 24 104 Invisible 0
WINDOW 123 0 0 Left 0
WINDOW 39 0 0 Left 0
SYMATTR Value 0
SYMATTR InstName Ic7bdiobr
SYMBOL bc857x 720 544 M180
WINDOW 39 84 48 Left 0
SYMATTR InstName U1
SYMATTR SpiceModel BC857B
SYMBOL bc857x 720 1280 M180
WINDOW 39 84 48 Left 0
SYMATTR InstName U2
SYMBOL bc857x 1536 544 M180
WINDOW 39 84 48 Left 0
SYMATTR SpiceLine QMODEL={DIO}
SYMATTR InstName U3
SYMATTR SpiceModel BC857B
SYMBOL bc857x 1536 1280 M180
WINDOW 39 84 48 Left 0
SYMATTR SpiceLine QMODEL={DIO}
SYMATTR InstName U4
SYMBOL voltage 3216 1280 R0
WINDOW 3 24 104 Invisible 0
WINDOW 123 0 0 Left 0
WINDOW 39 0 0 Left 0
SYMATTR Value 0
SYMATTR InstName Ic7onsbr
SYMBOL bc857x 3152 1280 M180
WINDOW 39 84 48 Left 0
SYMATTR SpiceLine QMODEL={ONS}
SYMATTR InstName U9
SYMBOL voltage 3216 544 R0
WINDOW 3 24 104 Invisible 0
WINDOW 123 0 0 Left 0
WINDOW 39 0 0 Left 0
SYMATTR Value 0
SYMATTR InstName Ic7ons
SYMBOL bc857x 3152 544 M180
WINDOW 39 84 48 Left 0
SYMATTR SpiceLine QMODEL={ONS}
SYMATTR InstName U10
SYMATTR SpiceModel BC857B
SYMBOL voltage 3488 1280 R0
WINDOW 3 24 104 Invisible 0
WINDOW 123 0 0 Left 0
WINDOW 39 0 0 Left 0
SYMATTR Value 0
SYMATTR InstName Ic7aztxbr
SYMBOL bc857x 3424 1280 M180
WINDOW 39 84 48 Left 0
SYMATTR SpiceLine QMODEL={ZTX}
SYMATTR InstName U11
SYMATTR SpiceModel BC857A_BEBR_P
SYMBOL voltage 3488 544 R0
WINDOW 3 24 104 Invisible 0
WINDOW 123 0 0 Left 0
WINDOW 39 0 0 Left 0
SYMATTR Value 0
SYMATTR InstName Ic7aztx
SYMBOL bc857x 3424 544 M180
WINDOW 39 84 48 Left 0
SYMATTR SpiceLine QMODEL={ZTX}
SYMATTR InstName U12
SYMATTR SpiceModel BC857A
SYMBOL voltage 272 224 R0
WINDOW 3 24 104 Invisible 0
WINDOW 123 0 0 Left 0
WINDOW 39 0 0 Left 0
SYMATTR Value 0
SYMATTR InstName Ic6phi
SYMBOL voltage 272 960 R0
WINDOW 3 24 104 Invisible 0
WINDOW 123 0 0 Left 0
WINDOW 39 0 0 Left 0
SYMATTR Value 0
SYMATTR InstName Ic6phibr
SYMBOL bc856x 208 224 M180
WINDOW 39 84 48 Left 0
SYMATTR InstName U13
SYMATTR SpiceModel BC856
SYMBOL bc856x 208 960 M180
WINDOW 39 84 48 Left 0
SYMATTR InstName U14
SYMATTR SpiceModel BC856_BEBR_P
SYMBOL voltage 528 224 R0
WINDOW 3 24 104 Invisible 0
WINDOW 123 0 0 Left 0
WINDOW 39 0 0 Left 0
SYMATTR Value 0
SYMATTR InstName Ic6aphi
SYMBOL voltage 528 960 R0
WINDOW 3 24 104 Invisible 0
WINDOW 123 0 0 Left 0
WINDOW 39 0 0 Left 0
SYMATTR Value 0
SYMATTR InstName Ic6aphibr
SYMBOL bc856x 464 224 M180
WINDOW 39 84 48 Left 0
SYMATTR InstName U15
SYMATTR SpiceModel BC856A
SYMBOL bc856x 464 960 M180
WINDOW 39 84 48 Left 0
SYMATTR InstName U16
SYMATTR SpiceModel BC856A_BEBR_P
SYMBOL voltage 1600 224 R0
WINDOW 3 24 104 Invisible 0
WINDOW 123 0 0 Left 0
WINDOW 39 0 0 Left 0
SYMATTR Value 0
SYMATTR InstName Ic6bdio
SYMBOL voltage 1600 960 R0
WINDOW 3 24 104 Invisible 0
WINDOW 123 0 0 Left 0
WINDOW 39 0 0 Left 0
SYMATTR Value 0
SYMATTR InstName Ic6bdiobr
SYMBOL bc856x 1536 224 M180
WINDOW 39 84 48 Left 0
SYMATTR SpiceLine QMODEL={DIO}
SYMATTR InstName U17
SYMATTR SpiceModel BC856B
SYMBOL bc856x 1536 960 M180
WINDOW 39 84 48 Left 0
SYMATTR SpiceLine QMODEL={DIO}
SYMATTR InstName U18
SYMBOL voltage 3488 224 R0
WINDOW 3 24 104 Invisible 0
WINDOW 123 0 0 Left 0
WINDOW 39 0 0 Left 0
SYMATTR Value 0
SYMATTR InstName Ic6aztx
SYMBOL voltage 3488 960 R0
WINDOW 3 24 104 Invisible 0
WINDOW 123 0 0 Left 0
WINDOW 39 0 0 Left 0
SYMATTR Value 0
SYMATTR InstName Ic6aztkbr
SYMBOL bc856x 3424 224 M180
WINDOW 39 84 48 Left 0
SYMATTR SpiceLine QMODEL={ZTX}
SYMATTR InstName U19
SYMATTR SpiceModel BC856A
SYMBOL bc856x 3424 960 M180
WINDOW 39 84 48 Left 0
SYMATTR SpiceLine QMODEL={ZTX}
SYMATTR InstName U20
SYMATTR SpiceModel BC856A_BEBR_P
SYMBOL voltage 272 544 R0
WINDOW 3 24 104 Invisible 0
WINDOW 123 0 0 Left 0
WINDOW 39 0 0 Left 0
SYMATTR Value 0
SYMATTR InstName Ic7phi
SYMBOL bc857x 208 544 M180
WINDOW 39 84 48 Left 0
SYMATTR InstName U21
SYMATTR SpiceModel BC857
SYMBOL voltage 272 1280 R0
WINDOW 3 24 104 Invisible 0
WINDOW 123 0 0 Left 0
WINDOW 39 0 0 Left 0
SYMATTR Value 0
SYMATTR InstName Ic7phibr
SYMBOL bc857x 208 1280 M180
WINDOW 39 84 48 Left 0
SYMATTR InstName U22
SYMATTR SpiceModel BC857_BEBR_P
SYMBOL voltage 528 544 R0
WINDOW 3 24 104 Invisible 0
WINDOW 123 0 0 Left 0
WINDOW 39 0 0 Left 0
SYMATTR Value 0
SYMATTR InstName Ic7aphi
SYMBOL voltage 528 1280 R0
WINDOW 3 24 104 Invisible 0
WINDOW 123 0 0 Left 0
WINDOW 39 0 0 Left 0
SYMATTR Value 0
SYMATTR InstName Ic7aphibr
SYMBOL bc857x 464 544 M180
WINDOW 39 84 48 Left 0
SYMATTR InstName U23
SYMATTR SpiceModel BC857A
SYMBOL bc857x 464 1280 M180
WINDOW 39 84 48 Left 0
SYMATTR InstName U24
SYMATTR SpiceModel BC857A_BEBR_P
SYMBOL voltage 1056 544 R0
WINDOW 3 24 104 Invisible 0
WINDOW 123 0 0 Left 0
WINDOW 39 0 0 Left 0
SYMATTR Value 0
SYMATTR InstName Ic7cphi
SYMBOL voltage 1056 1280 R0
WINDOW 3 24 104 Invisible 0
WINDOW 123 0 0 Left 0
WINDOW 39 0 0 Left 0
SYMATTR Value 0
SYMATTR InstName Ic7cphibr
SYMBOL bc857x 992 544 M180
WINDOW 39 84 48 Left 0
SYMATTR InstName U25
SYMATTR SpiceModel BC857C
SYMBOL bc857x 992 1280 M180
WINDOW 39 84 48 Left 0
SYMATTR InstName U26
SYMATTR SpiceModel BC857C_BEBR_P
SYMBOL voltage 1328 544 R0
WINDOW 3 24 104 Invisible 0
WINDOW 123 0 0 Left 0
WINDOW 39 0 0 Left 0
SYMATTR Value 0
SYMATTR InstName Ic7adio
SYMBOL voltage 1328 1280 R0
WINDOW 3 24 104 Invisible 0
WINDOW 123 0 0 Left 0
WINDOW 39 0 0 Left 0
SYMATTR Value 0
SYMATTR InstName Ic7adiobr
SYMBOL bc857x 1264 544 M180
WINDOW 39 84 48 Left 0
SYMATTR SpiceLine QMODEL={DIO}
SYMATTR InstName U27
SYMATTR SpiceModel BC857A
SYMBOL bc857x 1264 1280 M180
WINDOW 39 84 48 Left 0
SYMATTR SpiceLine QMODEL={DIO}
SYMATTR InstName U28
SYMATTR SpiceModel BC857A_BEBR_P
SYMBOL voltage 1872 544 R0
WINDOW 3 24 104 Invisible 0
WINDOW 123 0 0 Left 0
WINDOW 39 0 0 Left 0
SYMATTR Value 0
SYMATTR InstName Ic7cdio
SYMBOL voltage 1872 1280 R0
WINDOW 3 24 104 Invisible 0
WINDOW 123 0 0 Left 0
WINDOW 39 0 0 Left 0
SYMATTR Value 0
SYMATTR InstName Ic7cdiobr
SYMBOL bc857x 1808 544 M180
WINDOW 39 84 48 Left 0
SYMATTR SpiceLine QMODEL={DIO}
SYMATTR InstName U29
SYMATTR SpiceModel BC857C
SYMBOL bc857x 1808 1280 M180
WINDOW 39 84 48 Left 0
SYMATTR SpiceLine QMODEL={DIO}
SYMATTR InstName U30
SYMATTR SpiceModel BC857C_BEBR_P
SYMBOL voltage 2144 224 R0
WINDOW 3 24 104 Invisible 0
WINDOW 123 0 0 Left 0
WINDOW 39 0 0 Left 0
SYMATTR Value 0
SYMATTR InstName Ic6inf
SYMBOL voltage 2144 960 R0
WINDOW 3 24 104 Invisible 0
WINDOW 123 0 0 Left 0
WINDOW 39 0 0 Left 0
SYMATTR Value 0
SYMATTR InstName Ic6infbr
SYMBOL bc856x 2080 224 M180
WINDOW 39 84 48 Left 0
SYMATTR SpiceLine QMODEL={INF}
SYMATTR InstName U31
SYMATTR SpiceModel BC856
SYMBOL bc856x 2080 960 M180
WINDOW 39 84 48 Left 0
SYMATTR SpiceLine QMODEL={INF}
SYMATTR InstName U32
SYMATTR SpiceModel BC856_BEBR_P
SYMBOL voltage 2144 544 R0
WINDOW 3 24 104 Invisible 0
WINDOW 123 0 0 Left 0
WINDOW 39 0 0 Left 0
SYMATTR Value 0
SYMATTR InstName Ic7inf
SYMBOL voltage 2144 1280 R0
WINDOW 3 24 104 Invisible 0
WINDOW 123 0 0 Left 0
WINDOW 39 0 0 Left 0
SYMATTR Value 0
SYMATTR InstName Ic7infbr
SYMBOL bc857x 2080 544 M180
WINDOW 39 84 48 Left 0
SYMATTR SpiceLine QMODEL={INF}
SYMATTR InstName U33
SYMATTR SpiceModel BC857
SYMBOL bc857x 2080 1280 M180
WINDOW 39 84 48 Left 0
SYMATTR SpiceLine QMODEL={INF}
SYMATTR InstName U34
SYMATTR SpiceModel BC857_BEBR_P
SYMBOL voltage 2400 544 R0
WINDOW 3 24 104 Invisible 0
WINDOW 123 0 0 Left 0
WINDOW 39 0 0 Left 0
SYMATTR Value 0
SYMATTR InstName Ic7ainf
SYMBOL voltage 2400 1280 R0
WINDOW 3 24 104 Invisible 0
WINDOW 123 0 0 Left 0
WINDOW 39 0 0 Left 0
SYMATTR Value 0
SYMATTR InstName Ic7ainfbr
SYMBOL bc857x 2336 544 M180
WINDOW 39 84 48 Left 0
SYMATTR SpiceLine QMODEL={INF}
SYMATTR InstName U35
SYMATTR SpiceModel BC857A
SYMBOL bc857x 2336 1280 M180
WINDOW 39 84 48 Left 0
SYMATTR SpiceLine QMODEL={INF}
SYMATTR InstName U36
SYMATTR SpiceModel BC857A_BEBR_P
SYMBOL voltage 2672 544 R0
WINDOW 3 24 104 Invisible 0
WINDOW 123 0 0 Left 0
WINDOW 39 0 0 Left 0
SYMATTR Value 0
SYMATTR InstName Ic7binf
SYMBOL voltage 2672 1280 R0
WINDOW 3 24 104 Invisible 0
WINDOW 123 0 0 Left 0
WINDOW 39 0 0 Left 0
SYMATTR Value 0
SYMATTR InstName Ic7binfbr
SYMBOL bc857x 2608 544 M180
WINDOW 39 84 48 Left 0
SYMATTR SpiceLine QMODEL={INF}
SYMATTR InstName U37
SYMATTR SpiceModel BC857B
SYMBOL bc857x 2608 1280 M180
WINDOW 39 84 48 Left 0
SYMATTR SpiceLine QMODEL={INF}
SYMATTR InstName U38
SYMBOL voltage 2944 544 R0
WINDOW 3 24 104 Invisible 0
WINDOW 123 0 0 Left 0
WINDOW 39 0 0 Left 0
SYMATTR Value 0
SYMATTR InstName Ic7cinf
SYMBOL voltage 2944 1280 R0
WINDOW 3 24 104 Invisible 0
WINDOW 123 0 0 Left 0
WINDOW 39 0 0 Left 0
SYMATTR Value 0
SYMATTR InstName Ic7cinfbr
SYMBOL bc857x 2880 544 M180
WINDOW 39 84 48 Left 0
SYMATTR SpiceLine QMODEL={INF}
SYMATTR InstName U39
SYMATTR SpiceModel BC857C
SYMBOL bc857x 2880 1280 M180
WINDOW 39 84 48 Left 0
SYMATTR SpiceLine QMODEL={INF}
SYMATTR InstName U40
SYMATTR SpiceModel BC857C_BEBR_P
TEXT 888 -88 Left 0 ;.TEMP -55 +25 150
TEXT 888 -104 Left 0 ;.dc Vbe -100m 1500m 1m
TEXT 1128 -96 Left 0 !* source of model\n.INC ModelSource.def
TEXT 888 -72 Left 0 !.TEMP +25
TEXT 888 -128 Left 0 !.dc Vbe 500m 1500m 1m
