Version 4
SHEET 1 880 680
WIRE 224 -160 144 -160
WIRE 0 -128 0 -160
WIRE 144 -128 144 -160
WIRE 416 -64 320 -64
WIRE 464 -64 416 -64
WIRE 464 -48 464 -64
WIRE 0 -16 0 -48
WIRE 144 -16 144 -48
WIRE 464 32 464 16
WIRE 128 96 128 80
WIRE 224 96 224 -160
WIRE 320 96 320 -64
WIRE 416 96 416 -64
WIRE -128 192 -384 192
WIRE -384 224 -384 192
WIRE -128 240 -128 192
WIRE -80 240 -128 240
WIRE 720 272 576 272
WIRE 784 272 720 272
WIRE -80 304 -128 304
WIRE 720 304 720 272
WIRE -384 352 -384 304
WIRE -128 352 -128 304
WIRE -128 352 -384 352
WIRE 608 432 576 432
WIRE 608 464 608 432
WIRE 720 464 720 384
FLAG 128 80 +5V
FLAG 0 -160 +5V
FLAG 0 -16 0
FLAG 144 -16 0
FLAG 608 464 0
FLAG 784 272 out
IOPIN 784 272 Out
FLAG 464 32 0
FLAG 720 464 0
SYMBOL voltage 0 -144 R0
SYMATTR InstName V1
SYMATTR Value 5
SYMBOL voltage 144 -144 R0
SYMATTR InstName V2
SYMATTR Value 2.5
SYMBOL voltage -384 208 R0
WINDOW 123 0 0 Left 0
WINDOW 39 0 0 Left 0
SYMATTR InstName VB
SYMATTR Value SINE(0 10m 100)
SYMBOL cap 448 -48 R0
SYMATTR InstName C1
SYMATTR Value 1n
SYMBOL res 704 288 R0
SYMATTR InstName R1
SYMATTR Value 10k
SYMBOL ad22057 144 240 R0
WINDOW 38 -134 -144 Left 0
SYMATTR InstName U1
SYMATTR SpiceModel AD22057N
TEXT -400 -112 Left 0 !.op
TEXT -400 -64 Left 0 !.tran 0 100m 0 100u
TEXT -400 -40 Left 0 !.options plotwinsize=0
TEXT -328 16 Left 0 ;Change to AD22057t\nor AD22057n
LINE Normal 16 96 -160 48
LINE Normal 5 87 16 96
LINE Normal 1 97 16 96
