Version 4
SHEET 1 1240 680
WIRE 352 -48 192 -48
WIRE 192 -16 192 -48
WIRE 416 64 416 48
WIRE 192 80 192 64
WIRE 352 96 352 -48
WIRE 384 96 352 96
WIRE 560 96 464 96
WIRE 384 128 192 128
WIRE 560 128 464 128
WIRE 192 160 192 128
WIRE 16 176 16 144
WIRE 400 176 400 160
WIRE 416 176 416 160
WIRE 416 176 400 176
WIRE 432 176 432 160
WIRE 432 176 416 176
WIRE 416 192 416 176
WIRE 16 288 16 256
WIRE 192 288 192 240
FLAG 16 288 0
FLAG 416 48 +V
FLAG 416 192 0
FLAG 16 144 +V
FLAG 560 128 _OUT
FLAG 192 288 0
FLAG 192 80 0
FLAG 560 96 OUT
SYMBOL voltage 16 160 R0
SYMATTR InstName V1
SYMATTR Value 5
SYMBOL AD8611 416 112 R0
SYMATTR InstName U1
SYMBOL voltage 192 144 R0
WINDOW 123 0 0 Left 0
WINDOW 39 24 132 Left 0
SYMATTR InstName V2
SYMATTR Value SINE(1 1 10e6)
SYMATTR SpiceLine Rser=100
SYMBOL voltage 192 -32 R0
WINDOW 123 0 0 Left 0
WINDOW 39 24 132 Left 0
SYMATTR InstName V3
SYMATTR Value 1
SYMATTR SpiceLine Rser=100
TEXT -32 -32 Left 0 !.tran 0 10u 0 1n
