Version 4
SHEET 1 880 680
WIRE -16 240 -32 240
WIRE -16 288 -16 240
WIRE -16 416 -32 416
WIRE -16 416 -16 368
WIRE 16 336 16 272
WIRE 32 240 -16 240
WIRE 32 272 16 272
WIRE 32 384 32 320
WIRE 32 416 -16 416
WIRE 64 208 64 192
WIRE 64 464 64 448
WIRE 128 336 16 336
WIRE 128 400 128 336
WIRE 144 256 128 256
WIRE 144 320 32 320
WIRE 144 320 144 256
WIRE 144 400 128 400
WIRE 160 256 144 256
WIRE 160 464 64 464
WIRE 176 192 64 192
WIRE 192 304 64 304
WIRE 192 464 160 464
WIRE 192 464 192 304
WIRE 208 192 176 192
WIRE 208 352 64 352
WIRE 208 352 208 192
FLAG 160 256 _Q
IOPIN 160 256 Out
FLAG 144 400 Q
IOPIN 144 400 Out
FLAG -32 240 S
FLAG -32 416 R
FLAG 176 192 V+
FLAG 160 464 1
SYMBOL res -32 272 R0
WINDOW 0 -20 16 Left 0
WINDOW 3 -24 62 Left 0
SYMATTR InstName R1
SYMATTR Value 1g
SYMBOL Norh0 80 192 R0
SYMATTR InstName X1
SYMBOL Norh0 80 336 R0
SYMATTR InstName X2
