Version 4
SHEET 1 1156 716
WIRE 112 224 48 224
WIRE 592 224 208 224
WIRE 656 224 592 224
WIRE 800 224 736 224
WIRE 48 304 48 224
WIRE 64 304 48 304
WIRE 160 304 160 288
WIRE 160 304 144 304
WIRE 272 304 160 304
WIRE 656 304 400 304
WIRE 720 304 656 304
WIRE 800 304 800 224
WIRE 800 304 720 304
WIRE 656 352 656 304
WIRE 48 480 48 304
WIRE 336 480 336 352
WIRE 416 480 336 480
WIRE 592 480 592 224
WIRE 592 480 496 480
WIRE 720 480 720 304
WIRE 336 592 336 480
WIRE 592 592 592 480
WIRE 800 592 800 304
WIRE 48 640 48 560
WIRE 80 640 48 640
WIRE 80 656 80 640
WIRE 48 688 48 640
WIRE 336 688 336 672
WIRE 336 688 48 688
WIRE 592 688 592 656
WIRE 592 688 336 688
WIRE 720 688 720 560
WIRE 720 688 592 688
WIRE 800 688 800 656
WIRE 800 688 720 688
FLAG 80 656 0
FLAG 656 352 Out
IOPIN 656 352 Out
SYMBOL reg3all 400 320 R0
SYMATTR InstName U1
SYMATTR SpiceModel LM7815
SYMBOL pnp2 208 288 M270
WINDOW 0 34 63 VLeft 0
WINDOW 3 62 81 VLeft 0
SYMATTR InstName Q1
SYMATTR Value BD440
SYMBOL res 160 288 R90
WINDOW 0 58 91 VBottom 0
WINDOW 3 32 46 VTop 0
SYMATTR InstName R1
SYMATTR Value 47
SYMATTR SpiceLine tol=1 pwr=0.1
SYMBOL res 512 464 R90
WINDOW 0 15 115 VBottom 0
WINDOW 3 -11 -9 VTop 0
SYMATTR InstName R3
SYMATTR Value 5k6
SYMATTR SpiceLine tol=1 pwr=0.1
SYMBOL res 320 576 R0
WINDOW 0 37 45 Left 0
SYMATTR InstName R2
SYMATTR Value 2.2
SYMATTR SpiceLine tol=1 pwr=0.1
SYMBOL diode 608 656 R180
WINDOW 0 24 72 Left 0
WINDOW 3 24 0 Left 0
SYMATTR InstName D1
SYMATTR Value 30BQ060
SYMBOL polcap 784 592 R0
WINDOW 0 -37 33 Left 0
WINDOW 3 -43 66 Left 0
SYMATTR InstName C3
SYMATTR Value 470u
SYMATTR Description Capacitor
SYMATTR Type cap
SYMATTR SpiceLine V=35 Irms=1.42 Rser=0.046 MTBF=5000 Lser=0 mfg="Nichicon" pn="UPL1V471MPH" type="Al electrolytic" ppPkg=1
SYMBOL res 704 464 R0
WINDOW 0 44 48 Left 0
WINDOW 3 40 85 Left 0
SYMATTR InstName RL
SYMATTR Value 5
SYMATTR SpiceLine tol=1 pwr=0.1
SYMBOL voltage 48 464 R0
WINDOW 3 -13 60 Left 0
WINDOW 123 0 0 Left 0
WINDOW 39 8 120 Left 0
SYMATTR Value 25
SYMATTR SpiceLine Rser=1m Cpar=47u
SYMATTR InstName V1
SYMBOL ind 640 240 R270
WINDOW 0 -22 21 VTop 0
WINDOW 3 5 74 VBottom 0
SYMATTR InstName L1
SYMATTR Value 680u
SYMATTR SpiceLine Ipk=2 Rser=0.17 Rpar=30000 Cpar=440f mfg="Gowanda" pn="894AT7503V"
TEXT 120 656 Left 0 !.tran 0 5m 0 1u
