Version 4
SHEET 1 4588 680
WIRE 656 -1792 640 -1792
WIRE 672 -1792 656 -1792
WIRE 672 -1712 640 -1712
WIRE 672 -1392 608 -1392
WIRE 672 -1312 608 -1312
WIRE 752 -880 640 -880
WIRE 800 -1120 608 -1120
WIRE 800 -1088 800 -1120
WIRE 800 -976 800 -992
WIRE 800 -960 800 -976
WIRE 816 -1632 816 -1648
WIRE 816 -1232 816 -1248
WIRE 864 -1072 848 -1072
WIRE 864 -976 800 -976
WIRE 864 -976 864 -1072
WIRE 912 -592 912 -864
WIRE 960 -672 960 -688
WIRE 960 -512 960 -576
WIRE 960 -352 640 -352
WIRE 960 -352 960 -416
WIRE 1040 -512 960 -512
WIRE 1040 -432 1008 -432
WIRE 1040 -432 1040 -512
WIRE 1136 -688 960 -688
WIRE 1136 -688 1136 -704
WIRE 1152 -1792 1120 -1792
WIRE 1152 -1712 1120 -1712
WIRE 1152 -1392 1120 -1392
WIRE 1152 -1312 1120 -1312
WIRE 1184 -432 1040 -432
WIRE 1184 -432 1184 -720
WIRE 1200 -1072 864 -1072
WIRE 1264 -432 1184 -432
WIRE 1296 -1632 1296 -1648
WIRE 1296 -1232 1296 -1248
WIRE 1312 -864 912 -864
WIRE 1312 -688 1136 -688
WIRE 1312 -672 1312 -688
WIRE 1312 -528 1312 -576
WIRE 1312 -512 1312 -528
WIRE 1312 -400 1312 -416
WIRE 1376 -592 1360 -592
WIRE 1376 -560 640 -560
WIRE 1376 -560 1376 -592
WIRE 1376 -528 1312 -528
WIRE 1472 -528 1376 -528
WIRE 1520 -928 1520 -960
WIRE 1520 -864 1312 -864
WIRE 1520 -752 1520 -864
WIRE 1520 -608 1520 -752
WIRE 1520 -464 1520 -512
WIRE 1568 -1072 1200 -1072
WIRE 1568 -960 1520 -960
WIRE 1600 -752 1520 -752
WIRE 1600 -656 1600 -752
WIRE 1616 -1792 1600 -1792
WIRE 1616 -1392 1600 -1392
WIRE 1616 -976 1616 -992
WIRE 1616 -752 1600 -752
WIRE 1616 -752 1616 -880
WIRE 1616 -656 1600 -656
WIRE 1632 -1792 1616 -1792
WIRE 1632 -1712 1600 -1712
WIRE 1632 -1392 1616 -1392
WIRE 1632 -1312 1600 -1312
WIRE 1664 -752 1616 -752
WIRE 1664 -736 1664 -752
WIRE 1664 -592 1664 -640
WIRE 1776 -1632 1776 -1648
WIRE 1776 -1232 1776 -1248
WIRE 2112 -1792 2080 -1792
WIRE 2112 -1712 2080 -1712
WIRE 2112 -1392 2080 -1392
WIRE 2112 -1312 2080 -1312
WIRE 2256 -1232 2256 -1248
WIRE 2384 -928 2352 -928
WIRE 2384 -624 2352 -624
FLAG 960 -464 0
FLAG 960 -624 VDD
FLAG 1312 -624 VDD
FLAG 1312 -464 0
FLAG 800 -1040 VDD
FLAG 1520 -560 0
FLAG 1520 -464 0
FLAG 1136 -752 VDD
FLAG 1136 -800 VDD
FLAG 1312 -400 0
FLAG 800 -912 0
FLAG 800 -784 0
FLAG 1616 -1040 VDD
FLAG 1616 -1088 VDD
FLAG 1616 -928 VDD
FLAG 1520 -928 0
FLAG 1664 -688 0
FLAG 1664 -592 0
FLAG 1376 -528 Vrbias
FLAG 1312 -864 n2
FLAG 1200 -1072 Vpbias
FLAG 976 -1456 VDD
FLAG 976 -1248 0
FLAG 816 -1456 Vpbias
FLAG 816 -1232 Vrbias
FLAG 1456 -1456 VDD
FLAG 1456 -1248 0
FLAG 1296 -1456 Vpbias
FLAG 1296 -1232 Vrbias
FLAG 1936 -1456 VDD
FLAG 1936 -1248 0
FLAG 1776 -1456 Vpbias
FLAG 1776 -1232 Vrbias
FLAG 2416 -1456 VDD
FLAG 2416 -1248 0
FLAG 2256 -1456 Vpbias
FLAG 2256 -1232 Vrbias
FLAG 976 -1856 VDD
FLAG 976 -1648 0
FLAG 816 -1856 Vpbias
FLAG 816 -1632 Vrbias
FLAG 1456 -1856 VDD
FLAG 1456 -1648 0
FLAG 1296 -1856 Vpbias
FLAG 1296 -1632 Vrbias
FLAG 1936 -1856 VDD
FLAG 1936 -1648 0
FLAG 1776 -1856 Vpbias
FLAG 1776 -1632 Vrbias
FLAG 1616 -1392 Out2
FLAG 656 -1792 Out4
FLAG 1616 -1792 Out6
FLAG 2560 -1392 Out4
FLAG 2560 -1312 Out4i
FLAG 640 -1712 Out4i
FLAG 2128 -816 0
FLAG 2128 -512 0
FLAG 2208 -1024 VDD
FLAG 2208 -720 VDD
FLAG 1904 -960 Out7
FLAG 1904 -576 Out7
FLAG 1904 -880 Out7i
FLAG 1904 -656 Out7i
FLAG 2048 -1024 Vpbias
FLAG 2048 -720 Vpbias
FLAG 2496 -848 0
FLAG 2496 -544 0
FLAG 2496 -1008 VDD
FLAG 2496 -704 VDD
FLAG 2640 -928 Outm
IOPIN 2640 -928 Out
FLAG 2640 -624 Outp
IOPIN 2640 -624 Out
FLAG 640 -880 Vindel
IOPIN 640 -880 In
FLAG 640 -560 VREF
IOPIN 640 -560 In
FLAG 608 -1392 Inp
IOPIN 608 -1392 In
FLAG 608 -1312 Inm
IOPIN 608 -1312 In
FLAG 608 -1120 VDD
IOPIN 608 -1120 In
FLAG 640 -352 GND
IOPIN 640 -352 In
FLAG 2112 -1792 Out7
FLAG 2112 -1712 Out7i
SYMBOL nmos4 1008 -512 M0
WINDOW 0 104 24 Right 0
WINDOW 3 179 41 Right 0
WINDOW 123 213 74 Right 0
SYMATTR InstName M1
SYMATTR Value N_50n
SYMATTR Value2 l=50n w=500n
SYMBOL pmos4 912 -672 R0
WINDOW 0 88 9 Right 0
WINDOW 3 168 20 Right 0
WINDOW 123 206 76 Right 0
SYMATTR InstName M3
SYMATTR Value P_50n
SYMATTR Value2 l=50n w=1u
SYMBOL pmos4 1360 -672 M0
WINDOW 0 88 9 Right 0
WINDOW 3 168 20 Right 0
WINDOW 123 206 76 Right 0
SYMATTR InstName M4
SYMATTR Value P_50n
SYMATTR Value2 l=50n w=1u
SYMBOL nmos4 1264 -512 R0
WINDOW 0 104 24 Right 0
WINDOW 3 179 41 Right 0
WINDOW 123 213 74 Right 0
SYMATTR InstName M2
SYMATTR Value N_50n
SYMATTR Value2 l=50n w=500n
SYMBOL pmos4 848 -992 R180
WINDOW 0 88 9 Right 0
WINDOW 3 168 20 Right 0
WINDOW 123 206 76 Right 0
SYMATTR InstName M5
SYMATTR Value P_50n
SYMATTR Value2 l=50n w=1u
SYMBOL nmos4 1472 -608 R0
WINDOW 0 104 24 Right 0
WINDOW 3 179 41 Right 0
WINDOW 123 213 74 Right 0
SYMATTR InstName M7
SYMATTR Value N_50n
SYMATTR Value2 l=50n w=500n
SYMBOL pmos4 1184 -800 M0
WINDOW 0 88 9 Right 0
WINDOW 3 168 20 Right 0
WINDOW 123 206 76 Right 0
SYMATTR InstName M6
SYMATTR Value P_50n
SYMATTR Value2 l=50n w=1u
SYMBOL nmos4 752 -960 R0
WINDOW 0 104 24 Right 0
WINDOW 3 179 41 Right 0
WINDOW 123 213 74 Right 0
SYMATTR InstName Mref
SYMATTR Value N_50n
SYMATTR Value2 l=50n w=5u
SYMBOL res 784 -880 R0
SYMATTR InstName R1
SYMATTR Value 10k
SYMBOL pmos4 1568 -992 M180
WINDOW 0 88 9 Right 0
WINDOW 3 168 20 Right 0
WINDOW 123 206 76 Right 0
SYMATTR InstName M8
SYMATTR Value P_50n
SYMATTR Value2 l=50n w=10u
SYMBOL pmos4 1568 -880 M180
WINDOW 0 88 9 Right 0
WINDOW 3 168 20 Right 0
WINDOW 123 206 76 Right 0
SYMATTR InstName M9
SYMATTR Value P_50n
SYMATTR Value2 l=50n w=1u
SYMBOL nmos4 1616 -736 R0
WINDOW 0 104 24 Right 0
WINDOW 3 179 41 Right 0
WINDOW 123 213 74 Right 0
SYMATTR InstName M10
SYMATTR Value N_50n
SYMATTR Value2 l=100n w=500n
SYMBOL delay 704 -1344 R0
SYMATTR InstName U1
SYMBOL delay 1184 -1344 R0
SYMATTR InstName U3
SYMBOL delay 1664 -1344 R0
SYMATTR InstName U4
SYMBOL delay 2144 -1344 R0
SYMATTR InstName U5
SYMBOL delay 704 -1744 R0
SYMATTR InstName U6
SYMBOL delay 1184 -1744 R0
SYMATTR InstName U7
SYMBOL delay 1664 -1744 R0
SYMATTR InstName U8
SYMBOL pdiff 1936 -912 R0
SYMATTR InstName U10
SYMBOL pdiff 1936 -608 R0
SYMATTR InstName U11
SYMBOL INV_20_10 2416 -992 R0
SYMATTR InstName U12
SYMBOL INV_20_10 2416 -688 R0
SYMATTR InstName U13
TEXT 1848 -456 Left 0 !.lib cmosedu_models.txt
