Version 4
SHEET 1 1068 1192
WIRE -416 720 -416 768
WIRE -416 848 -416 912
WIRE -224 720 -112 720
WIRE -112 720 -112 752
WIRE -112 832 -112 864
WIRE -288 720 -416 720
WIRE -416 192 -416 448
WIRE -304 192 -400 192
WIRE -240 192 -112 192
WIRE -112 192 -112 224
WIRE -112 304 -112 336
WIRE -224 448 -112 448
WIRE -112 448 -112 480
WIRE -112 560 -112 592
WIRE -288 448 -416 448
WIRE -416 448 -416 720
WIRE -400 192 -416 192
WIRE -112 192 -64 192
WIRE -112 448 -64 448
WIRE -112 720 -64 720
FLAG -416 912 0
FLAG -112 864 0
FLAG -400 192 in
FLAG -64 720 out3
IOPIN -64 720 Out
FLAG -112 336 0
FLAG -64 192 out1
IOPIN -64 192 Out
FLAG -112 592 0
FLAG -64 448 out2
IOPIN -64 448 Out
SYMBOL diode -288 736 R270
WINDOW 0 32 32 VTop 0
WINDOW 3 0 32 VBottom 0
SYMATTR InstName D3
SYMATTR Value CCL0130
SYMATTR Prefix X
SYMBOL voltage -416 752 R0
SYMATTR InstName V1
SYMATTR Value 0
SYMBOL res -128 736 R0
SYMATTR InstName R3
SYMATTR Value 10k
SYMBOL res -128 208 R0
SYMATTR InstName R1
SYMATTR Value 10k
SYMBOL res -128 464 R0
SYMATTR InstName R2
SYMATTR Value 10k
SYMBOL X_Asy\\xdiode\\XDIODE -288 464 R270
WINDOW 0 32 32 VTop 0
WINDOW 38 0 32 VBottom 0
SYMATTR InstName D2
SYMATTR SpiceModel CCL0300
SYMBOL X_Asy\\xdiode_cl -304 208 R270
WINDOW 0 32 32 VTop 0
WINDOW 38 0 32 VBottom 0
SYMATTR InstName U1
SYMATTR SpiceModel CCL0500
TEXT -400 80 Left 0 !.dc V1 -2 10 0.01
TEXT -320 792 Left 0 ;diode.asy
TEXT -320 520 Left 0 ;XDIODE.ASY
TEXT -344 256 Left 0 ;xdiode_cl.asy
TEXT -408 32 Left 0 !.include CCLp.lib
TEXT 88 176 Left 0 ;Current Limiting Diodes\nCentral Semiconductor Corp.\nhttp://www.centralsemi.com/spicemodels/spicecld.aspx\n \n1. Special symbol for current limiting diodes \n \n2. Subcircuit symbol for diodes\n \n3. Standard diode model symbol, prefix changed to X for subcircuit\nRight mouse click on the symbol, change "Prefix" from D to X
TEXT -176 80 Left 0 ;DC stepped from -1V to 10V  stepsize 10mV
TEXT -176 32 Left 0 ;Include the library file containing the subcircuit models
