Version 4
SHEET 1 1100 680
WIRE -96 192 -96 144
WIRE -96 144 0 144
WIRE 144 144 144 192
WIRE -96 272 -96 320
WIRE -96 320 144 320
WIRE 144 320 144 256
WIRE -96 336 -96 320
WIRE 144 144 320 144
WIRE 320 144 320 192
WIRE 320 320 320 256
WIRE 320 320 144 320
WIRE 320 144 496 144
WIRE 496 144 496 192
WIRE 496 320 496 256
WIRE 496 320 320 320
WIRE 496 144 672 144
WIRE 672 144 672 192
WIRE 672 320 672 256
WIRE 672 320 496 320
WIRE 672 144 848 144
WIRE 848 144 848 192
WIRE 848 320 848 256
WIRE 848 320 672 320
WIRE 0 144 144 144
FLAG -96 336 0
FLAG 0 144 vd
SYMBOL xdiode 128 192 R0
SYMATTR InstName D1
SYMATTR SpiceModel MBD1057
SYMBOL voltage -96 176 R0
SYMATTR InstName V1
SYMATTR Value 0
SYMBOL xdiode 304 192 R0
SYMATTR InstName D2
SYMATTR SpiceModel MBD2057
SYMBOL xdiode 480 192 R0
SYMATTR InstName D3
SYMATTR SpiceModel MBD3057
SYMBOL xdiode 656 192 R0
SYMATTR InstName D4
SYMATTR SpiceModel MBD4057
SYMBOL xdiode 832 192 R0
SYMATTR InstName D5
SYMATTR SpiceModel MBD5057
TEXT -152 -72 Left 0 !.include MBDx057.lib
TEXT -152 -32 Left 0 !.dc V1 -0.05 0.55 0.01
TEXT 168 -120 Left 0 ;* Tunnel diode models adapted to standard SPICE syntax\n* Helmut Sennewald   9/11/2004\n* http://www.metelics.com/spicetunnel.htm\n* MBD1057 MBD2057 MBD3057 MBD4057 MBD5057 \n* Poly(1) added to each G1 source in the original models,\n* because of different SPICE syntax. \n* G1 1 2 5 0  -29.263E-6 7.3533E-3 -83.688E-3 0.25456\n* -> G1 1 2 POLY(1) 5 0  -29.263E-6 7.3533E-3 -83.688E-3 0.25456
