Version 4
SHEET 1 880 680
WIRE 240 16 128 16
WIRE 448 16 320 16
WIRE 528 16 448 16
WIRE 624 16 528 16
WIRE 128 112 128 16
WIRE 448 112 448 16
WIRE 624 128 624 16
WIRE 128 240 128 192
WIRE 448 240 448 208
WIRE 624 240 624 192
FLAG 128 240 0
FLAG 448 240 0
FLAG 624 240 0
FLAG 528 16 Vneon
SYMBOL voltage 128 96 R0
WINDOW 3 -22 225 Left 0
WINDOW 123 0 0 Left 0
WINDOW 39 0 0 Left 0
SYMATTR Value 200V
SYMATTR InstName V1
SYMBOL res 336 0 R90
WINDOW 0 0 56 VBottom 0
WINDOW 3 32 56 VTop 0
SYMATTR InstName R1
SYMATTR Value 1meg
SYMBOL Misc\\neonbulb 448 160 R0
SYMATTR InstName U1
SYMBOL cap 608 128 R0
SYMATTR InstName C1
SYMATTR Value 10n
TEXT 104 288 Left 0 !;op
TEXT 104 368 Left 0 !.tran 20ms startup
