Version 4
SHEET 1 1348 836
WIRE 288 -80 -128 -80
WIRE 704 -80 288 -80
WIRE 880 -80 704 -80
WIRE -448 16 -528 16
WIRE 112 16 -448 16
WIRE -528 64 -528 16
WIRE 144 64 -208 64
WIRE 496 64 224 64
WIRE 704 96 704 -80
WIRE 880 96 880 -80
WIRE -528 208 -528 144
WIRE 288 240 288 -80
WIRE 112 272 112 16
WIRE 192 272 112 272
WIRE 704 288 704 160
WIRE 800 288 704 288
WIRE 880 288 880 176
WIRE 880 288 800 288
WIRE 192 304 112 304
WIRE 496 304 496 64
WIRE 496 304 368 304
WIRE 800 320 800 288
WIRE -128 336 -128 -80
WIRE -448 352 -528 352
WIRE -384 352 -448 352
WIRE -208 352 -208 64
WIRE -208 352 -304 352
WIRE -160 352 -208 352
WIRE -32 368 -96 368
WIRE 192 368 -32 368
WIRE 496 368 368 368
WIRE -160 384 -208 384
WIRE -528 400 -528 352
WIRE 112 400 112 304
WIRE 192 400 112 400
WIRE 704 416 704 288
WIRE -208 448 -208 384
WIRE 496 448 496 368
WIRE 880 464 880 288
WIRE 112 480 112 400
WIRE -528 544 -528 480
WIRE -32 624 -32 368
WIRE 0 624 -32 624
WIRE -128 752 -128 400
WIRE 288 752 288 432
WIRE 288 752 -128 752
WIRE 704 752 704 480
WIRE 704 752 288 752
WIRE 880 752 880 544
WIRE 880 752 704 752
FLAG 800 320 0
FLAG 496 448 0
FLAG -208 448 0
FLAG -528 544 0
FLAG 112 480 0
FLAG 0 624 out
IOPIN 0 624 Out
FLAG -528 208 0
FLAG -448 16 Ex
FLAG -448 352 E
SYMBOL voltage 880 80 R0
WINDOW 123 0 0 Left 0
WINDOW 39 0 0 Left 0
SYMATTR InstName V1
SYMATTR Value 15
SYMBOL voltage 880 448 R0
WINDOW 123 0 0 Left 0
WINDOW 39 0 0 Left 0
SYMATTR InstName V2
SYMATTR Value 15
SYMBOL res -288 336 R90
WINDOW 0 0 56 VBottom 0
WINDOW 3 32 56 VTop 0
SYMATTR InstName R1
SYMATTR Value 10K
SYMBOL res 240 48 R90
WINDOW 0 0 56 VBottom 0
WINDOW 3 32 56 VTop 0
SYMATTR InstName R2
SYMATTR Value 10K
SYMBOL voltage -528 384 R0
WINDOW 123 24 136 Left 0
WINDOW 39 0 0 Left 0
SYMATTR Value2 AC 1
SYMATTR InstName V3
SYMATTR Value SINE(0 1 75)
SYMBOL voltage -528 48 R0
WINDOW 123 24 136 Left 0
WINDOW 39 0 0 Left 0
SYMATTR Value2 AC 1
SYMATTR InstName V4
SYMATTR Value SINE(5 4 60)
SYMBOL cap 688 96 R0
SYMATTR InstName C1
SYMATTR Value 0.1µF
SYMBOL cap 688 416 R0
SYMATTR InstName C2
SYMATTR Value 0.1µF
SYMBOL Opamps\\opamp2 -128 304 R0
SYMATTR InstName U4
SYMATTR Value TL074
SYMBOL ad633 288 336 R0
SYMATTR InstName U1
TEXT -546 -278 Left 0 !.tran 0 1 0 0.1m
TEXT -552 -384 Left 0 !.include tl074.inc
TEXT -552 -344 Left 0 !.include ad633.inc
TEXT -280 -344 Left 0 ;.options tseed=200n
TEXT -280 -384 Left 0 ;.OPTIONS GMIN=1e-11
TEXT -16 584 Left 0 ;V(out) = -10V*V(E)/V(Ex)
TEXT -552 -240 Left 0 !.options plotwinsize=0
TEXT 400 -704 Left 0 ;LTSPICE has problems with convergence when simulating the AD633.\nThe first attempt has been to reduce Gmin, but it has been shown\nthat this doesn't help in all cases of input signals.\n \nThe problem is that LTSPICE tries to start with a very small time step\nfor best accuracy. This first timestep can be overwritten with the "tseed" option.\n \nIt has been also necessary to set a minimum timestep in the .tran command\nto reach convergence!\n \n \nAnother suggestion (from "analogspiceman"):\nIt seems making the following changes to the AD633.cir text file (the \nchanges are in lower case) will allow working with any phase without \nproblems.\n \ngEOSX 10 1 POLY(1) (16,100) (5E-3,1) ; changed from E to G source with\nreosx 10 1 1                         ; 1 ohm across it to maintain gain\n \ngEOSY 20 3 POLY(1) (26,100) (5E-3,1) ; changed from E to G source with\nreosy 20 3 1                         ; 1 ohm across it to maintain gain
TEXT -248 -240 Left 0 ;The option "plotwinsize=0" switches off any data \ncompression to get the most precise reults.
TEXT -528 -696 Left 0 ;DIVIDER CIRCUIT WITH THE MULTIPLIER AD633\n \nAD633:  W = (X1-X2) * (Y1-Y2) / 10V + Z\n \nDivider: V(out) = -10V*V(E)/V(Ex)\n \nWarning: Division by a small value results\nin useless saturated output voltage.
TEXT -280 -304 Left 0 !.options cshunt 1e-15   ; adds a cap from each node to 0
