Version 4
SHEET 1 4432 680
WIRE 1440 -304 1152 -304
WIRE 1440 -288 1440 -304
WIRE 1152 -256 1152 -304
WIRE 1440 -128 1440 -208
WIRE 1456 -128 1440 -128
WIRE 1584 -128 1456 -128
WIRE 1792 -128 1680 -128
WIRE 1584 -96 1520 -96
WIRE 1728 -96 1680 -96
WIRE 1728 -48 1728 -96
WIRE 1792 -48 1728 -48
WIRE 1520 -32 1520 -96
WIRE 1440 48 1440 -128
WIRE 1440 48 1408 48
WIRE 1344 96 1264 96
WIRE 1440 144 1408 144
WIRE 1440 176 1440 144
WIRE 1552 176 1520 176
WIRE 1584 176 1552 176
WIRE 1696 176 1664 176
WIRE 1712 176 1696 176
WIRE 1264 192 1264 96
WIRE 1552 192 1552 176
WIRE 1440 272 1264 272
WIRE 1552 272 1440 272
WIRE 1440 304 1440 272
FLAG 1440 304 0
FLAG 1152 -176 0
FLAG 1520 -32 0
FLAG 1712 256 0
FLAG 1696 176 Out
FLAG 1456 -128 x
FLAG 1792 32 0
SYMBOL res 1248 176 R0
SYMATTR InstName R1
SYMATTR Value 10k
SYMBOL res 1424 -304 R0
SYMATTR InstName R2
SYMATTR Value 100k
SYMBOL voltage 1152 -272 R0
WINDOW 123 0 0 Left 2
WINDOW 39 0 0 Left 2
SYMATTR InstName V1
SYMATTR Value 130
SYMBOL res 1536 176 R0
SYMATTR InstName R3
SYMATTR Value 10
SYMBOL tline 1632 -112 R0
SYMATTR InstName T1
SYMATTR Value Td=2n Z0=50
SYMBOL res 1536 160 R90
WINDOW 0 0 56 VBottom 2
WINDOW 3 32 56 VTop 2
SYMATTR InstName R4
SYMATTR Value 22
SYMBOL res 1680 160 R90
WINDOW 0 0 56 VBottom 2
WINDOW 3 32 56 VTop 2
SYMATTR InstName R5
SYMATTR Value 43
SYMBOL res 1776 -144 R0
SYMATTR InstName R6
SYMATTR Value 1T
SYMBOL res 1696 160 R0
SYMATTR InstName R7
SYMATTR Value 1T
SYMBOL res 1776 -64 R0
SYMATTR InstName R8
SYMATTR Value 1T
SYMBOL 2N2369A_Avalanche 1376 96 R0
SYMATTR InstName X1
TEXT 936 352 Left 2 !.tran 0 5u 0.1n uic
TEXT 936 400 Left 4 !.options reltol=0.01m
TEXT 1312 208 Left 4 ;*
TEXT 1312 -112 Left 2 !.ic V(x)=0
