Version 4
SHEET 1 1580 2296
WIRE 272 288 224 288
WIRE 400 288 352 288
WIRE 480 288 400 288
WIRE 608 288 560 288
WIRE 224 304 224 288
WIRE 480 352 480 336
WIRE 400 368 400 288
WIRE 448 368 400 368
WIRE 608 384 608 288
WIRE 608 384 512 384
WIRE 688 384 608 384
WIRE 752 384 688 384
WIRE -144 400 -192 400
WIRE 112 400 -64 400
WIRE 336 400 176 400
WIRE 448 400 336 400
WIRE -192 432 -192 400
WIRE 480 432 480 416
WIRE 688 432 688 384
WIRE 336 448 336 400
WIRE 688 544 688 512
WIRE -192 560 -192 512
WIRE 336 560 336 528
WIRE 912 576 912 544
WIRE 1024 576 912 576
WIRE 912 608 912 576
WIRE 1024 624 1024 576
WIRE 288 656 240 656
WIRE 416 656 368 656
WIRE 496 656 416 656
WIRE 624 656 576 656
WIRE 240 672 240 656
WIRE 912 720 912 688
WIRE 1024 720 1024 688
WIRE 496 768 496 752
WIRE 416 784 416 656
WIRE 464 784 416 784
WIRE 624 800 624 656
WIRE 624 800 528 800
WIRE 704 800 624 800
WIRE 768 800 704 800
WIRE -128 816 -176 816
WIRE 128 816 -48 816
WIRE 352 816 192 816
WIRE 464 816 352 816
WIRE 912 816 912 784
WIRE 1024 816 912 816
WIRE -176 848 -176 816
WIRE 496 848 496 832
WIRE 704 848 704 800
WIRE 912 848 912 816
WIRE 352 864 352 816
WIRE 1024 864 1024 816
WIRE 704 960 704 928
WIRE 912 960 912 928
WIRE 1024 960 1024 928
WIRE -176 976 -176 928
WIRE 352 976 352 944
FLAG -192 560 0
FLAG 336 560 0
FLAG 480 432 V-
FLAG 480 336 V+
FLAG 224 304 0
FLAG 688 544 0
FLAG 912 720 0
FLAG 912 784 V-
FLAG 912 960 0
FLAG 912 544 V+
FLAG 1024 720 0
FLAG 1024 960 0
FLAG 752 384 out1
IOPIN 752 384 Out
FLAG -176 976 0
FLAG 352 976 0
FLAG 496 848 V-
FLAG 496 752 V+
FLAG 240 672 0
FLAG 704 960 0
FLAG 768 800 out2
IOPIN 768 800 Out
SYMBOL voltage -192 416 R0
WINDOW 123 24 132 Left 0
WINDOW 39 0 0 Left 0
SYMATTR Value2 AC 2
SYMATTR InstName V1
SYMATTR Value PULSE(0 0.2 0 1n 1n 100u 200u)
SYMBOL cap 176 384 R90
WINDOW 0 0 32 VBottom 0
WINDOW 3 32 32 VTop 0
SYMATTR InstName C1
SYMATTR Value 10µ
SYMBOL RES 352 432 M0
SYMATTR InstName R1
SYMATTR Value 1k
SYMBOL res 464 304 R270
WINDOW 0 32 56 VTop 0
WINDOW 3 0 56 VBottom 0
SYMATTR InstName R2
SYMATTR Value 9k
SYMBOL res 256 304 R270
WINDOW 0 32 56 VTop 0
WINDOW 3 0 56 VBottom 0
SYMATTR InstName R3
SYMATTR Value 1k
SYMBOL res 672 416 R0
SYMATTR InstName R4
SYMATTR Value 10k
SYMBOL VOLTAGE 912 592 R0
WINDOW 123 0 0 Left 0
WINDOW 39 0 0 Left 0
SYMATTR InstName V2
SYMATTR Value 5
SYMBOL VOLTAGE 912 832 R0
WINDOW 39 0 0 Left 0
WINDOW 123 0 0 Left 0
SYMATTR InstName V3
SYMATTR Value -5
SYMBOL cap 1008 624 R0
SYMATTR InstName C3
SYMATTR Value .1µ
SYMBOL cap 1008 864 R0
SYMATTR InstName C5
SYMATTR Value .1µ
SYMBOL res -160 416 R270
WINDOW 0 14 9 VTop 0
WINDOW 3 42 109 VBottom 0
SYMATTR InstName R5
SYMATTR Value 1k
SYMBOL cap 192 800 R90
WINDOW 0 0 32 VBottom 0
WINDOW 3 32 32 VTop 0
SYMATTR InstName C2
SYMATTR Value 10µ
SYMBOL RES 368 848 M0
SYMATTR InstName R6
SYMATTR Value 1k
SYMBOL res 480 672 R270
WINDOW 0 32 56 VTop 0
WINDOW 3 0 56 VBottom 0
SYMATTR InstName R7
SYMATTR Value 9k
SYMBOL res 272 672 R270
WINDOW 0 32 56 VTop 0
WINDOW 3 0 56 VBottom 0
SYMATTR InstName R8
SYMATTR Value 1k
SYMBOL res 688 832 R0
SYMATTR InstName R9
SYMATTR Value 10k
SYMBOL res -144 832 R270
WINDOW 0 32 56 VTop 0
WINDOW 3 0 56 VBottom 0
SYMATTR InstName R10
SYMATTR Value 1k
SYMBOL voltage -176 832 R0
WINDOW 123 24 132 Left 0
WINDOW 39 0 0 Left 0
SYMATTR Value2 AC 2
SYMATTR InstName V4
SYMATTR Value PULSE(0 0.2 0 1n 1n 100u 200u)
SYMBOL Robertugo\\OPAMP5 480 320 R0
SYMATTR InstName U1
SYMATTR SpiceModel TLV2371
SYMBOL Robertugo\\OPAMP5 496 736 R0
SYMATTR InstName U2
SYMATTR SpiceModel TLV2372
TEXT -208 296 Left 0 ;.ac oct 10 1e2 1e9
TEXT -208 312 Left 0 !.op
TEXT -208 336 Left 0 !.tran 1m
TEXT -208 360 Left 0 !.options plotwinsize=0
TEXT 632 304 Left 0 ;It requires the Alternate-solver for .AC analysis.\nControl Panel -> SPICE  Solver: Alternate
TEXT -208 272 Left 0 ;Both models are 100% the same!
