Version 4
SHEET 1 880 680
WIRE 128 240 128 224
WIRE 128 336 128 320
FLAG 128 336 0
SYMBOL voltage 128 224 R0
SYMATTR InstName V1
SYMATTR Value sine(0 1 1K)
TEXT 112 384 Left 0 !.tran 0 10m 0 {1m/65536}
TEXT 112 408 Left 0 !.options plotwinsize=0
TEXT 112 432 Left 0 ;.options numdgt=15
TEXT 80 464 Left 0 ;Set num. of points to 262144
TEXT -56 496 Left 0 !.options threads=1 compilematrix1=0 compilematrix2=0
