Version 4
SHEET 1 880 680
WIRE -1184 -960 -1248 -960
WIRE -1488 -912 -1552 -912
WIRE -1184 -912 -1184 -960
WIRE -1488 -848 -1552 -848
WIRE -896 -816 -896 -832
WIRE -160 -816 -224 -816
WIRE -1184 -800 -1184 -832
WIRE -1104 -800 -1184 -800
WIRE -944 -800 -1104 -800
WIRE -1520 -784 -1584 -784
WIRE -1184 -784 -1184 -800
WIRE -512 -768 -560 -768
WIRE -160 -752 -224 -752
WIRE -160 -688 -224 -688
WIRE -1184 -672 -1184 -704
WIRE -512 -640 -544 -640
WIRE -160 -624 -224 -624
WIRE -1472 -432 -1552 -432
WIRE -1120 -432 -1216 -432
WIRE -1360 -320 -1360 -352
WIRE -1360 -320 -1536 -320
FLAG -1536 -320 clock
IOPIN -1536 -320 In
FLAG -1120 -432 OUTSH
FLAG -1184 -672 0
FLAG -1248 -960 VDD
FLAG -1552 -432 Vin
IOPIN -1552 -432 In
FLAG -1552 -912 Vrefm
IOPIN -1552 -912 In
FLAG -1552 -848 Vrefp
IOPIN -1552 -848 In
FLAG -1360 -528 VDD
FLAG -1104 -800 V1
FLAG 128 -672 B0
IOPIN 128 -672 Out
FLAG -896 -736 0
FLAG -896 -832 Vref_fine
FLAG -944 -752 0
FLAG -544 -640 Vrefm
FLAG -368 -960 VDD
FLAG -368 -416 Vfold
IOPIN -368 -416 Out
FLAG -1584 -784 VDD
IOPIN -1584 -784 In
FLAG 0 -416 Vref_fine
FLAG -48 -416 0
FLAG 48 -416 Vfold
FLAG 0 -960 VDD
FLAG -560 -768 OUTSH
FLAG 128 -736 B1
IOPIN 128 -736 Out
SYMBOL Sample_and_hold -1456 -368 R0
SYMATTR InstName U1
SYMBOL res -1200 -928 R0
WINDOW 3 82 39 Left 0
SYMATTR Value 300MEG
SYMATTR InstName R2
SYMBOL res -1200 -800 R0
WINDOW 3 82 39 Left 0
SYMATTR Value 100MEG
SYMATTR InstName R1
SYMBOL e -896 -832 R0
SYMATTR InstName E1
SYMATTR Value 1
SYMBOL 2bit_folder -448 -560 R0
SYMATTR InstName X1
SYMBOL 2_bit_fine_adc_lsb 0 -640 R0
SYMATTR InstName X2
TEXT -1424 -224 Left 0 ;Sample and Hold
TEXT -1240 -624 Left 0 ;Setup reference voltage for fine ADC\nsimply VDD divided by 2^N/2 (here 4)
