Version 4
SHEET 1 4400 868
WIRE 1488 -1136 1408 -1136
WIRE 2160 -1136 2080 -1136
WIRE 800 -1120 688 -1120
WIRE 1008 -1120 800 -1120
WIRE 1488 -1104 1424 -1104
WIRE 2160 -1104 2096 -1104
WIRE 1008 -1088 1008 -1120
WIRE 1488 -1072 1408 -1072
WIRE 2160 -1072 2080 -1072
WIRE 64 -1056 -16 -1056
WIRE 432 -1056 272 -1056
WIRE 688 -1056 688 -1120
WIRE 1488 -1040 1408 -1040
WIRE 2160 -1040 2080 -1040
WIRE 64 -1008 -16 -1008
WIRE 1488 -1008 1408 -1008
WIRE 2160 -1008 2080 -1008
WIRE 352 -992 288 -992
WIRE 432 -992 432 -1056
WIRE 1488 -976 1408 -976
WIRE 2160 -976 2080 -976
WIRE 64 -960 -16 -960
WIRE 1488 -944 1408 -944
WIRE 2160 -944 2080 -944
WIRE 352 -928 288 -928
WIRE 64 -912 -16 -912
WIRE 688 -912 688 -976
WIRE 1488 -912 1408 -912
WIRE 2160 -912 2080 -912
WIRE 368 -880 304 -880
WIRE 432 -880 432 -912
WIRE 512 -880 432 -880
WIRE 544 -880 512 -880
WIRE 1488 -880 1408 -880
WIRE 2160 -880 2080 -880
WIRE 1008 -864 1008 -896
WIRE 64 -848 -16 -848
WIRE 432 -848 432 -880
WIRE 1488 -848 1408 -848
WIRE 2160 -848 2080 -848
WIRE 1488 -816 1408 -816
WIRE 2160 -816 2080 -816
WIRE 64 -800 -16 -800
WIRE 1488 -784 1408 -784
WIRE 2160 -784 2080 -784
WIRE 64 -752 -16 -752
WIRE 1488 -752 1408 -752
WIRE 2160 -752 2080 -752
WIRE 1488 -720 1408 -720
WIRE 2160 -720 2080 -720
WIRE 64 -704 -16 -704
WIRE 432 -704 432 -768
WIRE 1488 -688 1408 -688
WIRE 2160 -688 2080 -688
WIRE 1488 -656 1408 -656
WIRE 2160 -656 2080 -656
WIRE 64 -640 -16 -640
WIRE 1008 -640 1008 -672
WIRE 272 -624 224 -624
WIRE 288 -624 272 -624
WIRE 64 -592 -16 -592
WIRE 1600 -576 1600 -624
WIRE 2272 -576 2272 -624
WIRE 224 -560 224 -624
WIRE 64 -544 -16 -544
WIRE 64 -496 -16 -496
WIRE 64 -432 -16 -432
WIRE 224 -416 224 -480
WIRE 1008 -416 1008 -448
WIRE 64 -384 -16 -384
WIRE 64 -336 -16 -336
WIRE 64 -288 -16 -288
WIRE 1472 -272 1392 -272
WIRE 2080 -256 2000 -256
WIRE 1472 -240 1408 -240
WIRE 2080 -224 2016 -224
WIRE 1472 -208 1392 -208
WIRE 2080 -192 2000 -192
WIRE 1472 -176 1392 -176
WIRE 2080 -160 2000 -160
WIRE 1472 -144 1392 -144
WIRE 2080 -128 2000 -128
WIRE 1472 -112 1392 -112
WIRE 880 -96 800 -96
WIRE 1008 -96 928 -96
WIRE 1056 -96 1008 -96
WIRE 2080 -96 2000 -96
WIRE 1472 -80 1392 -80
WIRE 2080 -64 2000 -64
WIRE 1472 -48 1392 -48
WIRE 2080 -32 2000 -32
WIRE 1472 -16 1392 -16
WIRE 2080 0 2000 0
WIRE 880 16 800 16
WIRE 1008 16 928 16
WIRE 1056 16 1008 16
WIRE 1472 16 1392 16
WIRE 2080 32 2000 32
WIRE 1472 48 1392 48
WIRE 2080 64 2000 64
WIRE 1472 80 1392 80
WIRE 2080 96 2000 96
WIRE 1472 112 1392 112
WIRE 880 128 800 128
WIRE 1008 128 928 128
WIRE 1056 128 1008 128
WIRE 2080 128 2000 128
WIRE 1472 144 1392 144
WIRE 2080 160 2000 160
WIRE 1472 176 1392 176
WIRE 2080 192 2000 192
WIRE 1472 208 1392 208
WIRE 2080 224 2000 224
WIRE 880 240 800 240
WIRE 1008 240 928 240
WIRE 1056 240 1008 240
FLAG 512 -880 Vtrip
FLAG 432 -704 0
FLAG 272 -1056 VDD
IOPIN 272 -1056 In
FLAG 224 -416 0
FLAG 272 -624 VCM
FLAG 688 -912 0
FLAG 896 -992 Vtrip
FLAG 896 -1024 VDD
FLAG 896 -960 VCM
FLAG 896 -768 Vtrip
FLAG 896 -800 VDD
FLAG 896 -736 VCM
FLAG 1120 -768 B2_org
FLAG 896 -544 Vtrip
FLAG 896 -576 VDD
FLAG 896 -512 VCM
FLAG 1120 -544 B1_org
FLAG 896 -320 Vtrip
FLAG 896 -352 VDD
FLAG 896 -288 VCM
FLAG 1120 -320 B0_org
FLAG 800 -1120 PIPIN
FLAG 288 -992 Vrefm
IOPIN 288 -992 In
FLAG 288 -928 Vrefp
IOPIN 288 -928 In
FLAG 1120 -992 B3_org
FLAG 304 -880 INSH
IOPIN 304 -880 In
FLAG -16 -1056 Reg1
IOPIN -16 -1056 In
FLAG -16 -1008 Reg2
IOPIN -16 -1008 In
FLAG -16 -960 Reg3
IOPIN -16 -960 In
FLAG -16 -912 Reg4
IOPIN -16 -912 In
FLAG -16 -848 Reg5
IOPIN -16 -848 In
FLAG -16 -800 Reg6
IOPIN -16 -800 In
FLAG -16 -752 Reg7
IOPIN -16 -752 In
FLAG -16 -704 Reg8
IOPIN -16 -704 In
FLAG -16 -640 Reg9
IOPIN -16 -640 In
FLAG -16 -592 Reg10
IOPIN -16 -592 In
FLAG -16 -544 Reg11
IOPIN -16 -544 In
FLAG -16 -496 Reg12
IOPIN -16 -496 In
FLAG -16 -432 Reg13
IOPIN -16 -432 In
FLAG -16 -384 Reg14
IOPIN -16 -384 In
FLAG -16 -336 Reg15
IOPIN -16 -336 In
FLAG -16 -288 Reg16
IOPIN -16 -288 In
FLAG 800 -96 B0_org
FLAG 896 -112 VDD
FLAG 1008 -96 B0i
FLAG 800 16 B1_org
FLAG 896 0 VDD
FLAG 1008 16 B1i
FLAG 800 128 B2_org
FLAG 896 112 VDD
FLAG 1008 128 B2i
FLAG 800 240 B3_org
FLAG 896 224 VDD
FLAG 1008 240 B3i
FLAG 1408 -1136 Reg1
IOPIN 1408 -1136 In
FLAG 1424 -1104 Reg2
IOPIN 1424 -1104 In
FLAG 1408 -1072 Reg3
IOPIN 1408 -1072 In
FLAG 1408 -1040 Reg4
IOPIN 1408 -1040 In
FLAG 1408 -1008 Reg5
IOPIN 1408 -1008 In
FLAG 1408 -976 Reg6
IOPIN 1408 -976 In
FLAG 1408 -944 Reg7
IOPIN 1408 -944 In
FLAG 1408 -912 Reg8
IOPIN 1408 -912 In
FLAG 1408 -880 Reg9
IOPIN 1408 -880 In
FLAG 1408 -848 Reg10
IOPIN 1408 -848 In
FLAG 1408 -816 Reg11
IOPIN 1408 -816 In
FLAG 1408 -784 Reg12
IOPIN 1408 -784 In
FLAG 1408 -752 Reg13
IOPIN 1408 -752 In
FLAG 1408 -720 Reg14
IOPIN 1408 -720 In
FLAG 1408 -688 Reg15
IOPIN 1408 -688 In
FLAG 1408 -656 Reg16
IOPIN 1408 -656 In
FLAG 1648 -1168 VDD
FLAG 2080 -1136 Reg1
IOPIN 2080 -1136 In
FLAG 2096 -1104 Reg2
IOPIN 2096 -1104 In
FLAG 2080 -1072 Reg3
IOPIN 2080 -1072 In
FLAG 2080 -1040 Reg4
IOPIN 2080 -1040 In
FLAG 2080 -1008 Reg5
IOPIN 2080 -1008 In
FLAG 2080 -976 Reg6
IOPIN 2080 -976 In
FLAG 2080 -944 Reg7
IOPIN 2080 -944 In
FLAG 2080 -912 Reg8
IOPIN 2080 -912 In
FLAG 2080 -880 Reg9
IOPIN 2080 -880 In
FLAG 2080 -848 Reg10
IOPIN 2080 -848 In
FLAG 2080 -816 Reg11
IOPIN 2080 -816 In
FLAG 2080 -784 Reg12
IOPIN 2080 -784 In
FLAG 2080 -752 Reg13
IOPIN 2080 -752 In
FLAG 2080 -720 Reg14
IOPIN 2080 -720 In
FLAG 2080 -688 Reg15
IOPIN 2080 -688 In
FLAG 2080 -656 Reg16
IOPIN 2080 -656 In
FLAG 2320 -1168 VDD
FLAG 1392 -272 Reg1
IOPIN 1392 -272 In
FLAG 1408 -240 Reg2
IOPIN 1408 -240 In
FLAG 1392 -208 Reg3
IOPIN 1392 -208 In
FLAG 1392 -176 Reg4
IOPIN 1392 -176 In
FLAG 1392 -144 Reg5
IOPIN 1392 -144 In
FLAG 1392 -112 Reg6
IOPIN 1392 -112 In
FLAG 1392 -80 Reg7
IOPIN 1392 -80 In
FLAG 1392 -48 Reg8
IOPIN 1392 -48 In
FLAG 1392 -16 Reg9
IOPIN 1392 -16 In
FLAG 1392 16 Reg10
IOPIN 1392 16 In
FLAG 1392 48 Reg11
IOPIN 1392 48 In
FLAG 1392 80 Reg12
IOPIN 1392 80 In
FLAG 1392 112 Reg13
IOPIN 1392 112 In
FLAG 1392 144 Reg14
IOPIN 1392 144 In
FLAG 1392 176 Reg15
IOPIN 1392 176 In
FLAG 1392 208 Reg16
IOPIN 1392 208 In
FLAG 1632 -304 VDD
FLAG 2000 -256 Reg1
IOPIN 2000 -256 In
FLAG 2016 -224 Reg2
IOPIN 2016 -224 In
FLAG 2000 -192 Reg3
IOPIN 2000 -192 In
FLAG 2000 -160 Reg4
IOPIN 2000 -160 In
FLAG 2000 -128 Reg5
IOPIN 2000 -128 In
FLAG 2000 -96 Reg6
IOPIN 2000 -96 In
FLAG 2000 -64 Reg7
IOPIN 2000 -64 In
FLAG 2000 -32 Reg8
IOPIN 2000 -32 In
FLAG 2000 0 Reg9
IOPIN 2000 0 In
FLAG 2000 32 Reg10
IOPIN 2000 32 In
FLAG 2000 64 Reg11
IOPIN 2000 64 In
FLAG 2000 96 Reg12
IOPIN 2000 96 In
FLAG 2000 128 Reg13
IOPIN 2000 128 In
FLAG 2000 160 Reg14
IOPIN 2000 160 In
FLAG 2000 192 Reg15
IOPIN 2000 192 In
FLAG 2000 224 Reg16
IOPIN 2000 224 In
FLAG 2240 -288 VDD
FLAG 1680 -624 B0_org
FLAG 1600 -576 B0i
FLAG 2272 -576 B1i
FLAG 2352 -624 B1_org
FLAG 1664 240 B2_org
FLAG 2272 256 B3_org
FLAG 2192 256 B3i
FLAG 1584 240 B2i
FLAG 1760 -48 B2
IOPIN 1760 -48 Out
FLAG 2448 -912 B1
IOPIN 2448 -912 Out
FLAG 2368 -32 B3
IOPIN 2368 -32 Out
FLAG 1776 -912 B0
IOPIN 1776 -912 Out
SYMBOL res 416 -864 R0
SYMATTR InstName R1
SYMATTR Value 100MEG
SYMBOL res 416 -1008 R0
SYMATTR InstName R2
SYMATTR Value 100MEG
SYMBOL bv 224 -576 R0
SYMATTR InstName B1
SYMATTR Value V=(V(VREFP)-V(VREFM))/2
SYMBOL bv 688 -1072 R0
WINDOW 3 -95 200 Left 0
SYMATTR Value V=V(INSH)-V(VREFM)
SYMATTR InstName BPIP
SYMBOL ADCbit 864 -976 R0
SYMATTR InstName U1
SYMBOL ADCbit 864 -752 R0
SYMATTR InstName U7
SYMBOL ADCbit 864 -528 R0
SYMATTR InstName U8
SYMBOL ADCbit 864 -304 R0
SYMATTR InstName U9
SYMBOL inverter 880 -96 R0
SYMATTR InstName X1
SYMBOL inverter 880 16 R0
SYMATTR InstName X2
SYMBOL inverter 880 128 R0
SYMATTR InstName X3
SYMBOL inverter 880 240 R0
SYMATTR InstName X4
SYMBOL PG 1648 -848 R0
SYMATTR InstName X5
SYMBOL PG 2320 -848 R0
SYMATTR InstName X6
SYMBOL PG 1632 16 R0
SYMATTR InstName X7
SYMBOL PG 2240 32 R0
SYMATTR InstName X8
TEXT 592 -840 Left 0 ;No level shift here.
TEXT 208 -368 Left 0 ;Setup common-mode voltage
