*
.SUBCKT 1ps70sb16 1 2 3
* The resistors do not reflect 
* physical devices.  Instead they
* improve modeling in the reverse 
* mode of operation.
*
R1 3 1 3.6E+07 
D1 3 1 1ps70sb16
R2 3 2 3.6E+07
D2 3 2 1ps70sb16 
*
.MODEL 1ps70sb16 D( 
+    IS = 2.117E-07 
+    N = 1.016 
+    BV = 36 
+    IBV = 1.196E-06 
+    RS = 2.637 
+    CJO = 1.114E-11 
+    VJ = 0.2013 
+    M = 0.3868 
+    FC = 0 
+    TT = 0 
+    EG = 0.69 
+    XTI = 2) 
*
