*
.SUBCKT PMBD354 1 2 3
*
* The Resistors do not 
* reflect physical devices. 
* Instead they improve modeling
* in the reverse mode of 
* operation.
*
R1 3 1 6E+07
D1 3 1 PMBD354
R2 2 3 6E+07
D2 2 3 PMBD354
*
.MODEL PMBD354 D 
+ IS = 1.419E-09 
+ N = 1.022 
+ BV = 6 
+ IBV = 2.45E-06 
+ RS = 5.112 
+ CJO = 7.867E-13 
+ VJ = 0.1043 
+ M = 0.1439 
+ FC = 0.5 
+ TT = 0 
+ EG = 0.69 
+ XTI = 2 
.ENDS
*
