*
.SUBCKT PMEG3015EV 1 2 3 4 5 6
*
* The Resistor R1 does not reflect 
* a physical device. Instead it
* improves modeling in the reverse 
* mode of operation.
*
R1 3 1 2E+5
D1 3 1 PMEG3015EV
*
* The resistors R2...R5 are only for
* pinning of the device
*
R2 3 4 0
R31 2 0
R4 1 5 0
R5 1 6 0
*
.MODEL PMEG3015EV D
+ IS = 1.05E-5
+ N = 0.998
+ BV = 33
+ IBV = 0.0004
+ RS = 0.08651
+ CJO = 1.189E-10
+ VJ = 0.3379
+ M = 0.4795
+ FC = 0.5
+ EG = 0.69
+ XTI = 2
.ENDS
*
