*
.SUBCKT PMEG2015EV 1 2 3 4 5 6
*
* The Resistor R1 does not reflect 
* a physical device. Instead it
* improves modeling in the reverse 
* mode of operation.
*
R1 3 1 2E+6
D1 3 1 PMEG2015EV
*
* The resistors R2...R5 are only for
* pinning of the device
*
R2 3 4 0
R3 1 2 0
R4 1 5 0
R5 1 6 0
*
.MODEL PMEG2015EV D 
+ IS = 1.175E-6
+ N = 0.9841
+ BV = 24
+ IBV = 0.001
+ RS = 0.1476
+ CJO = 7.035E-11
+ VJ = 0.3891
+ M = 0.4845
+ FC = 0.5
+ EG = 0.69
+ XTI = 2
.ENDS
*
