Version 4
SHEET 1 880 680
WIRE 256 -80 128 -80
WIRE 128 -48 128 -80
WIRE 256 -32 256 -80
WIRE 128 48 128 32
WIRE 64 80 -288 80
WIRE 64 112 -16 112
WIRE -16 128 -16 112
WIRE -288 144 -288 80
WIRE 304 176 256 176
WIRE 384 176 304 176
WIRE 416 176 384 176
WIRE 304 208 304 176
WIRE 384 224 384 176
WIRE -16 240 -16 208
WIRE 64 240 -16 240
WIRE -288 272 -288 224
WIRE 64 272 -288 272
WIRE 192 272 192 256
WIRE -288 288 -288 272
WIRE 128 320 128 304
WIRE 304 320 304 288
WIRE 384 320 384 288
WIRE 128 432 128 400
FLAG 128 432 0
FLAG 256 -32 0
FLAG 304 320 0
FLAG -288 288 0
FLAG 416 176 out
IOPIN 416 176 Out
FLAG 192 272 0
FLAG 384 320 0
SYMBOL voltage 128 48 M180
WINDOW 0 24 96 Left 0
WINDOW 3 24 16 Left 0
WINDOW 123 0 0 Left 0
WINDOW 39 37 46 Left 0
SYMATTR InstName V1
SYMATTR Value 15
SYMBOL voltage 128 416 M180
WINDOW 0 37 72 Left 0
WINDOW 3 24 16 Left 0
WINDOW 123 0 0 Left 0
WINDOW 39 0 0 Left 0
SYMATTR InstName V2
SYMATTR Value 15
SYMBOL res 288 192 R0
SYMATTR InstName R1
SYMATTR Value 10k
SYMATTR SpiceLine tol=1 pwr=0.1
SYMBOL res -32 112 R0
SYMATTR InstName R2
SYMATTR Value 100
SYMATTR SpiceLine tol=1 pwr=0.1
SYMBOL voltage -288 128 R0
WINDOW 3 13 117 Left 0
WINDOW 123 31 81 Left 0
WINDOW 39 0 0 Left 0
SYMATTR Value SINE(0 10m 1k 1m 0 0 2)
SYMATTR Value2 AC 1
SYMATTR InstName V3
SYMBOL ad620 112 176 R0
SYMATTR InstName U1
SYMBOL cap 368 224 R0
SYMATTR InstName C1
SYMATTR Value 1p
TEXT -312 -96 Left 0 !.include ad620a.cir
TEXT -312 -16 Left 0 !.tran 0 5m 0 10u
TEXT -312 -160 Left 0 ;Use the "Alternate solver.\nControl Panel -> SPICE -> Solver: Alternate
TEXT -312 -48 Left 0 ;.ac dec 100 1 1MEG
TEXT -312 16 Left 0 !.options plotwinsize=0
