Version 4
SHEET 1 2760 680
WIRE 512 -160 512 -176
WIRE 512 -48 512 -80
WIRE 512 32 512 16
WIRE 512 144 512 112
WIRE 640 -176 512 -176
WIRE 640 16 512 16
WIRE 736 -176 640 -176
WIRE 736 16 640 16
WIRE 832 -176 800 -176
WIRE 832 -176 832 -288
WIRE 832 16 800 16
WIRE 832 16 832 -80
WIRE 848 -176 832 -176
WIRE 848 -80 832 -80
WIRE 912 -288 832 -288
WIRE 912 16 832 16
WIRE 1152 -288 992 -288
WIRE 1152 -160 1136 -160
WIRE 1152 -160 1152 -288
WIRE 1152 -96 1136 -96
WIRE 1152 16 992 16
WIRE 1152 16 1152 -96
WIRE 1232 -128 1120 -128
WIRE 1232 -16 1232 -128
WIRE 1232 96 1232 64
WIRE 1312 -160 1152 -160
WIRE 1312 -96 1152 -96
FLAG 1312 -160 Voutp
FLAG 512 -48 0
FLAG 640 -176 Vinm
FLAG 1312 -96 Voutm
FLAG 512 144 0
FLAG 640 16 Vinp
FLAG 1232 96 0
SYMBOL res 896 -272 R270
WINDOW 0 32 56 VTop 0
WINDOW 3 0 56 VBottom 0
SYMATTR InstName Ri1
SYMATTR Value 100MEG
SYMBOL voltage 512 -176 R0
WINDOW 0 33 32 Left 0
WINDOW 3 37 66 Left 0
WINDOW 123 33 60 Left 0
WINDOW 39 0 0 Left 0
SYMATTR InstName Vinm
SYMATTR Value ""
SYMATTR Value2 AC -0.5
SYMBOL res 896 32 R270
WINDOW 0 32 56 VTop 0
WINDOW 3 0 56 VBottom 0
SYMATTR InstName Ri2
SYMATTR Value 100MEG
SYMBOL voltage 512 16 R0
WINDOW 0 40 48 Left 0
WINDOW 3 36 74 Left 0
WINDOW 123 40 73 Left 0
WINDOW 39 0 0 Left 0
SYMATTR InstName Vinp
SYMATTR Value ""
SYMATTR Value2 AC 0.5
SYMBOL voltage 1232 -32 R0
WINDOW 0 44 42 Left 0
WINDOW 3 41 73 Left 0
SYMATTR InstName VCM
SYMATTR Value 500mV
SYMBOL Gain_BW_diff_op_amp 896 -128 R0
SYMATTR InstName X1
SYMBOL cap 800 -160 M270
WINDOW 0 32 32 VTop 0
WINDOW 3 0 32 VBottom 0
SYMATTR InstName C1
SYMATTR Value 1
SYMBOL cap 800 32 M270
WINDOW 0 32 32 VTop 0
WINDOW 3 0 32 VBottom 0
SYMATTR InstName C2
SYMATTR Value 1
TEXT 864 80 Left 0 !.ac dec 100 100 100MEG
