Version 4
SHEET 1 2760 680
WIRE 1040 -384 1040 -416
WIRE 1152 -416 1040 -416
WIRE 1248 -416 1152 -416
WIRE 1248 -256 1248 -320
WIRE 1536 -256 1248 -256
WIRE 1536 -256 1536 -368
WIRE 1600 -368 1536 -368
WIRE 1648 -368 1600 -368
FLAG 1040 -304 0
FLAG 1152 -416 Vin
FLAG 1600 -368 Out
SYMBOL voltage 1040 -400 R0
WINDOW 0 45 42 Left 0
WINDOW 3 -274 132 Left 0
WINDOW 123 45 70 Left 0
WINDOW 39 0 0 Left 0
SYMATTR InstName VCM
SYMATTR Value PULSE(500m 600m 500n 100p 100p 50n)
SYMATTR Value2 AC 1
SYMBOL Ideal_op_amp 1296 -368 R0
SYMATTR InstName X1
TEXT 1112 -192 Left 0 !.tran 0 600n 450n 100p uic
