Version 4
SHEET 1 880 680
WIRE -176 320 -176 192
WIRE -176 512 -176 400
WIRE 32 192 -176 192
WIRE 160 512 -176 512
WIRE 160 512 160 288
WIRE 160 544 160 512
WIRE 480 192 288 192
WIRE 480 288 480 192
WIRE 480 512 160 512
WIRE 480 512 480 352
WIRE 544 192 480 192
FLAG 544 192 out
IOPIN 544 192 Out
FLAG 160 544 0
SYMBOL cap 464 288 R0
SYMATTR InstName C1
SYMATTR Value 10µ
SYMBOL voltage -176 304 R0
SYMATTR InstName V1
SYMATTR Value 22V
SYMBOL EXTRA\\VolReg\\LM7805-1 160 192 R0
SYMATTR InstName U1
TEXT -168 72 Left 0 !.op
