Version 4
SHEET 1 880 680
WIRE -176 320 -176 192
WIRE -176 512 -176 400
WIRE -96 192 -176 192
WIRE 48 192 -16 192
WIRE 48 208 48 192
WIRE 48 336 48 288
WIRE 48 368 48 336
WIRE 48 512 -176 512
WIRE 48 512 48 448
WIRE 112 336 48 336
WIRE 128 336 112 336
WIRE 160 192 48 192
WIRE 160 304 160 192
WIRE 160 512 48 512
WIRE 160 512 160 368
WIRE 160 544 160 512
WIRE 480 192 160 192
WIRE 480 288 480 192
WIRE 480 512 160 512
WIRE 480 512 480 352
WIRE 544 192 480 192
FLAG 544 192 out
IOPIN 544 192 Out
FLAG 160 544 0
FLAG 112 336 Vref
SYMBOL cap 464 288 R0
SYMATTR InstName C1
SYMATTR Value 10µ
SYMBOL voltage -176 304 R0
SYMATTR InstName V1
SYMATTR Value 22V
SYMBOL EXTRA\\VolReg\\TL431 144 304 R0
SYMATTR InstName U1
SYMBOL res 32 192 R0
SYMATTR InstName R1
SYMATTR Value 1k
SYMBOL res 32 352 R0
SYMATTR InstName R2
SYMATTR Value 1k
SYMBOL res 0 176 R90
WINDOW 0 0 56 VBottom 0
WINDOW 3 32 56 VTop 0
SYMATTR InstName R3
SYMATTR Value 10k
TEXT -168 72 Left 0 !.op
TEXT 56 152 Left 0 ;Vout=Vref*(1+R1/R2)+Iref*R1
