Version 4
SHEET 1 2920 932
WIRE 1920 -640 1776 -640
WIRE 2032 -640 1920 -640
WIRE 1776 -608 1776 -640
WIRE 672 -592 640 -592
WIRE 1152 -592 672 -592
WIRE 1296 -592 1152 -592
WIRE 1648 -592 1616 -592
WIRE 1728 -592 1648 -592
WIRE 640 -560 640 -592
WIRE 1296 -560 1248 -560
WIRE 1616 -560 1616 -592
WIRE 1568 -544 1472 -544
WIRE 992 -528 864 -528
WIRE 1296 -528 992 -528
WIRE 1776 -512 1776 -528
WIRE 1568 -496 1552 -496
WIRE 640 -448 640 -480
WIRE 1616 -448 1616 -480
WIRE 864 -432 864 -528
WIRE 864 -400 864 -432
WIRE 1152 -352 1152 -592
WIRE 1552 -352 1552 -496
WIRE 992 -304 992 -528
WIRE 640 -288 640 -320
WIRE 2032 -288 2032 -640
WIRE 2352 -272 2352 -320
WIRE 2384 -272 2384 -320
WIRE 2416 -272 2416 -320
WIRE 2448 -272 2448 -320
WIRE 2480 -272 2480 -320
WIRE 2512 -272 2512 -320
WIRE 2544 -272 2544 -320
WIRE 2576 -272 2576 -320
WIRE 864 -256 864 -320
WIRE 1360 -256 1312 -256
WIRE 1392 -256 1360 -256
WIRE 640 -176 640 -208
WIRE 1120 -128 1120 -160
WIRE 1152 -128 1152 -160
WIRE 1184 -128 1184 -160
WIRE 1216 -128 1216 -160
WIRE 1488 -128 1488 -160
WIRE 1520 -128 1520 -160
WIRE 1552 -128 1552 -160
WIRE 1584 -128 1584 -160
WIRE 2000 -64 2000 -96
WIRE 2032 -64 2032 -96
WIRE 2064 -64 2064 -96
WIRE 2096 -64 2096 -96
WIRE 1024 -32 976 -32
WIRE 1088 -32 1072 -32
WIRE 1104 -32 1088 -32
FLAG 640 -448 0
FLAG 672 -592 Vin
FLAG 992 -272 VDD
FLAG 1360 -256 VDD
FLAG 992 -240 0
FLAG 1248 -560 0
FLAG 1616 -448 0
FLAG 1120 -128 D4
FLAG 1152 -128 D5
FLAG 1184 -128 D6
FLAG 1216 -128 D7
FLAG 1584 -128 D4
FLAG 1552 -128 D5
FLAG 1520 -128 D6
FLAG 1488 -128 D7
FLAG 1712 -240 VDD
FLAG 1712 -272 0
FLAG 1728 -544 0
FLAG 1872 -208 VDD
FLAG 1872 -176 0
FLAG 2000 -64 D0
FLAG 2032 -64 D1
FLAG 2064 -64 D2
FLAG 2096 -64 D3
FLAG 2304 -192 VDD
FLAG 2304 -160 0
FLAG 2192 -192 VDD
FLAG 2624 -176 VDD
FLAG 2464 -80 Vout
FLAG 1040 -48 VDD
FLAG 976 -32 clk
FLAG 864 -256 0
FLAG 864 -432 clk
FLAG 1872 -240 clkb
FLAG 640 -176 0
FLAG 640 -320 VDD
FLAG 1088 -32 clkb
FLAG 2640 -432 VDD
FLAG 2288 -432 clk
FLAG 2352 -544 D0
FLAG 2384 -544 D1
FLAG 2416 -544 D2
FLAG 2448 -544 D3
FLAG 2480 -544 D4
FLAG 2512 -544 D5
FLAG 2544 -544 D6
FLAG 2576 -544 D7
FLAG 1648 -592 residue
FLAG 1920 -640 residue_amplified
FLAG 1776 -512 0
SYMBOL voltage 640 -576 R0
WINDOW 0 36 42 Left 0
WINDOW 3 -73 165 Left 0
WINDOW 123 0 0 Left 0
WINDOW 39 0 0 Left 0
SYMATTR InstName Vin1
SYMATTR Value PULSE(0 5 0 5u)
SYMBOL SpecialFunctions\\sample 1376 -560 R0
WINDOW 3 -28 112 Left 0
SYMATTR Value REF=2.5
SYMATTR InstName A1
SYMBOL e 1616 -576 R0
WINDOW 0 42 40 Left 0
WINDOW 3 45 74 Left 0
SYMATTR InstName E1
SYMATTR Value 1
SYMBOL Ideal_4_bit_DAC 1696 -176 R270
SYMATTR InstName X3
SYMBOL e 1776 -624 R0
WINDOW 0 38 39 Left 0
WINDOW 3 42 76 Left 0
SYMATTR InstName E2
SYMATTR Value 16
SYMBOL Ideal_8_bit_DAC 2320 -256 R90
SYMATTR InstName X5
SYMBOL inverter 1024 -32 R0
SYMATTR InstName X6
SYMBOL voltage 864 -416 R0
WINDOW 0 36 42 Left 0
WINDOW 3 -85 257 VLeft 0
WINDOW 123 0 0 Left 0
WINDOW 39 0 0 Left 0
SYMATTR InstName Vb1
SYMATTR Value PULSE(0 5 5n 100p 100p 4.9n 10n)
SYMBOL voltage 640 -304 R0
WINDOW 0 36 42 Left 0
WINDOW 3 44 15 Left 0
WINDOW 123 0 0 Left 0
WINDOW 39 0 0 Left 0
SYMATTR InstName VDD
SYMATTR Value 5
SYMBOL 8_bit_register 2320 -512 R90
SYMATTR InstName X2
SYMBOL No_offset_4_bit_ADC 1008 -336 R90
SYMATTR InstName X1
SYMBOL No_offset_4_bit_ADC 1888 -272 R90
SYMATTR InstName X4
TEXT 752 -88 Left 0 !.tran 0 5u 0 .1n uic
TEXT 752 -120 Left 0 !.options plotwinsize=0
TEXT 1160 -368 Left 0 ;No offset (no 1/2 LSB shift) ADC.
TEXT 1848 -304 Left 0 ;No offset (no 1/2 LSB shift) ADC.
