**************************************************
* Manufacturer:          Würth Elektronik
* Kinds:                 MLCCs Capacitors
* Matchcode:             WCAP-CSGP 16V DC bias
* Library Type:          LTspice
* Version:               rev22c
* Created/modified by:   Richard
* Date and Time:         2022/10/14
* Team:                  eiSos EDA Service  
* Contact:               libraries@we-online.com
**************************************************
* Copyright(C) 2022 Würth Elektronik eiSos GmbH & Co. KG
* All Rights Reserved.
**************************************************
* Disclaimer: While Würth Elektronik eiSos has made every reasonable effort to ensure the accuracy
* of the simulation models provided, Würth Elektronik eiSos does not guarantee the exemption of error on
* the simulation models, nor does Würth Elektronik eiSos guarantee that the simulation model is current.
* Würth Elektronik eiSos reserves the right to make any adjustments at any time without notice.
* Würth Elektronik eiSos expressly disclaims all implied warranties regarding this simulation model.
**************************************************
.subckt 0402X7R_4-7nF_885012205029 1 2 
.param
+ C0=4.700000000000E-09
+ Csat=4.707371238497E-10
+ Vth=3.055021017399E+02
+ Rs=7.998000000000E-02
+ Cs=4.700000000000E-09
+ Ls=1.744200000000E-10
+ Rp=1.000000000000E+10
Cs N002 2 Q=(x*{Csat})+({C0}*{Vth}*arctan(sinh(x/{Vth})))-({Csat}*{Vth}*(arctan(sinh(x/{Vth}))))
Rs N001 1 {Rs}
Ls N001 N002 {Ls}
Rp N002 2 {Rp}
RGND1 0 N002 1e12
RGND2 2 0 1e12
.backanno
.ends
*******
.subckt 0402X7R_470pF_885012205023 1 2 
.param
+ C0=4.700000000000E-10
+ Csat=4.749928197421E-11
+ Vth=4.345549213070E+02
+ Rs=3.159800000000E-01
+ Cs=4.700000000000E-10
+ Ls=2.154000000000E-10
+ Rp=1.000000000000E+10
Cs N002 2 Q=(x*{Csat})+({C0}*{Vth}*arctan(sinh(x/{Vth})))-({Csat}*{Vth}*(arctan(sinh(x/{Vth}))))
Rs N001 1 {Rs}
Ls N001 N002 {Ls}
Rp N002 2 {Rp}
RGND1 0 N002 1e12
RGND2 2 0 1e12
.backanno
.ends
*******
.subckt 0402X7R_1-5nF_885012205026 1 2 
.param
+ C0=1.500000000000E-09
+ Csat=1.502560472687E-10
+ Vth=1.303362747354E+02
+ Rs=1.730100000000E-01
+ Cs=1.500000000000E-09
+ Ls=2.549900000000E-10
+ Rp=1.000000000000E+10
Cs N002 2 Q=(x*{Csat})+({C0}*{Vth}*arctan(sinh(x/{Vth})))-({Csat}*{Vth}*(arctan(sinh(x/{Vth}))))
Rs N001 1 {Rs}
Ls N001 N002 {Ls}
Rp N002 2 {Rp}
RGND1 0 N002 1e12
RGND2 2 0 1e12
.backanno
.ends
*******
.subckt 0402X7R_3-3nF_885012205028 1 2 
.param
+ C0=3.300000000000E-09
+ Csat=3.300001798824E-10
+ Vth=1.047725205114E+02
+ Rs=8.715000000000E-02
+ Cs=3.300000000000E-09
+ Ls=2.272300000000E-10
+ Rp=1.000000000000E+10
Cs N002 2 Q=(x*{Csat})+({C0}*{Vth}*arctan(sinh(x/{Vth})))-({Csat}*{Vth}*(arctan(sinh(x/{Vth}))))
Rs N001 1 {Rs}
Ls N001 N002 {Ls}
Rp N002 2 {Rp}
RGND1 0 N002 1e12
RGND2 2 0 1e12
.backanno
.ends
*******
.subckt 0402X7R_2-2nF_885012205027 1 2 
.param
+ C0=2.200000000000E-09
+ Csat=2.200835245123E-10
+ Vth=1.106589445324E+02
+ Rs=1.214100000000E-01
+ Cs=2.200000000000E-09
+ Ls=2.510900000000E-10
+ Rp=1.000000000000E+10
Cs N002 2 Q=(x*{Csat})+({C0}*{Vth}*arctan(sinh(x/{Vth})))-({Csat}*{Vth}*(arctan(sinh(x/{Vth}))))
Rs N001 1 {Rs}
Ls N001 N002 {Ls}
Rp N002 2 {Rp}
RGND1 0 N002 1e12
RGND2 2 0 1e12
.backanno
.ends
*******
.subckt 0402X7R_6-8nF_885012205030 1 2 
.param
+ C0=6.800000000000E-09
+ Csat=6.800070619412E-10
+ Vth=6.280693967354E+01
+ Rs=7.283000000000E-02
+ Cs=6.800000000000E-09
+ Ls=1.903400000000E-10
+ Rp=1.000000000000E+10
Cs N002 2 Q=(x*{Csat})+({C0}*{Vth}*arctan(sinh(x/{Vth})))-({Csat}*{Vth}*(arctan(sinh(x/{Vth}))))
Rs N001 1 {Rs}
Ls N001 N002 {Ls}
Rp N002 2 {Rp}
RGND1 0 N002 1e12
RGND2 2 0 1e12
.backanno
.ends
*******
.subckt 0402X5R_33nF_885012105014 1 2 
.param
+ C0=3.300000000000E-08
+ Csat=3.300000042660E-09
+ Vth=1.617380903507E+01
+ Rs=2.649091901600E-02
+ Cs=3.300000000000E-08
+ Ls=2.003033780000E-10
+ Rp=1.000000000000E+10
Cs N002 2 Q=(x*{Csat})+({C0}*{Vth}*arctan(sinh(x/{Vth})))-({Csat}*{Vth}*(arctan(sinh(x/{Vth}))))
Rs N001 1 {Rs}
Ls N001 N002 {Ls}
Rp N002 2 {Rp}
RGND1 0 N002 1e12
RGND2 2 0 1e12
.backanno
.ends
*******
.subckt 0402X7R_22nF_885012205033 1 2 
.param
+ C0=2.200000000000E-08
+ Csat=2.200484432886E-09
+ Vth=2.089709317629E+01
+ Rs=2.779000000000E-02
+ Cs=2.200000000000E-08
+ Ls=1.875700000000E-10
+ Rp=1.000000000000E+10
Cs N002 2 Q=(x*{Csat})+({C0}*{Vth}*arctan(sinh(x/{Vth})))-({Csat}*{Vth}*(arctan(sinh(x/{Vth}))))
Rs N001 1 {Rs}
Ls N001 N002 {Ls}
Rp N002 2 {Rp}
RGND1 0 N002 1e12
RGND2 2 0 1e12
.backanno
.ends
*******
.subckt 0402X7R_15nF_885012205032 1 2 
.param
+ C0=1.500000000000E-08
+ Csat=1.501358855648E-09
+ Vth=2.207693728572E+01
+ Rs=4.045000000000E-02
+ Cs=1.500000000000E-08
+ Ls=2.074400000000E-10
+ Rp=1.000000000000E+10
Cs N002 2 Q=(x*{Csat})+({C0}*{Vth}*arctan(sinh(x/{Vth})))-({Csat}*{Vth}*(arctan(sinh(x/{Vth}))))
Rs N001 1 {Rs}
Ls N001 N002 {Ls}
Rp N002 2 {Rp}
RGND1 0 N002 1e12
RGND2 2 0 1e12
.backanno
.ends
*******
.subckt 0402X5R_47nF_885012105015 1 2 
.param
+ C0=4.700000000000E-08
+ Csat=4.700000082486E-09
+ Vth=1.463698915053E+01
+ Rs=3.678494964710E-02
+ Cs=4.700000000000E-08
+ Ls=1.808767000000E-10
+ Rp=1.000000000000E+10
Cs N002 2 Q=(x*{Csat})+({C0}*{Vth}*arctan(sinh(x/{Vth})))-({Csat}*{Vth}*(arctan(sinh(x/{Vth}))))
Rs N001 1 {Rs}
Ls N001 N002 {Ls}
Rp N002 2 {Rp}
RGND1 0 N002 1e12
RGND2 2 0 1e12
.backanno
.ends
*******
.subckt 0402X7R_68nF_885012205036 1 2 
.param
+ C0=6.800000000000E-08
+ Csat=6.800000256436E-09
+ Vth=9.869463124505E+00
+ Rs=1.842000000000E-02
+ Cs=6.800000000000E-08
+ Ls=2.233300000000E-10
+ Rp=7.400000000000E+09
Cs N002 2 Q=(x*{Csat})+({C0}*{Vth}*arctan(sinh(x/{Vth})))-({Csat}*{Vth}*(arctan(sinh(x/{Vth}))))
Rs N001 1 {Rs}
Ls N001 N002 {Ls}
Rp N002 2 {Rp}
RGND1 0 N002 1e12
RGND2 2 0 1e12
.backanno
.ends
*******
.subckt 0402X7R_100nF_885012205037R 1 2 
.param
+ C0=1.000000000000E-07
+ Csat=1.000000000147E-08
+ Vth=9.567785647944E+00
+ Rs=1.691374925650E-02
+ Cs=1.000000000000E-07
+ Ls=3.319630150000E-10
+ Rp=5.000000000000E+09
Cs N002 2 Q=(x*{Csat})+({C0}*{Vth}*arctan(sinh(x/{Vth})))-({Csat}*{Vth}*(arctan(sinh(x/{Vth}))))
Rs N001 1 {Rs}
Ls N001 N002 {Ls}
Rp N002 2 {Rp}
RGND1 0 N002 1e12
RGND2 2 0 1e12
.backanno
.ends
*******
.subckt 0402X7R_100nF_885012205037 1 2 
.param
+ C0=1.000000000000E-07
+ Csat=1.000000011715E-08
+ Vth=9.567786079184E+00
+ Rs=1.691374925650E-02
+ Cs=1.000000000000E-07
+ Ls=3.319630150000E-10
+ Rp=5.000000000000E+09
Cs N002 2 Q=(x*{Csat})+({C0}*{Vth}*arctan(sinh(x/{Vth})))-({Csat}*{Vth}*(arctan(sinh(x/{Vth}))))
Rs N001 1 {Rs}
Ls N001 N002 {Ls}
Rp N002 2 {Rp}
RGND1 0 N002 1e12
RGND2 2 0 1e12
.backanno
.ends
*******
.subckt 0402X7R_33nF_885012205034 1 2 
.param
+ C0=3.300000000000E-08
+ Csat=3.300008742358E-09
+ Vth=1.442718370475E+01
+ Rs=1.627000000000E-02
+ Cs=3.300000000000E-08
+ Ls=2.101300000000E-10
+ Rp=1.000000000000E+10
Cs N002 2 Q=(x*{Csat})+({C0}*{Vth}*arctan(sinh(x/{Vth})))-({Csat}*{Vth}*(arctan(sinh(x/{Vth}))))
Rs N001 1 {Rs}
Ls N001 N002 {Ls}
Rp N002 2 {Rp}
RGND1 0 N002 1e12
RGND2 2 0 1e12
.backanno
.ends
*******
.subckt 0402X7R_47nF_885012205035 1 2 
.param
+ C0=4.700000000000E-08
+ Csat=4.700237124805E-09
+ Vth=1.361751721685E+01
+ Rs=8.500000000000E-03
+ Cs=4.700000000000E-08
+ Ls=2.070700000000E-10
+ Rp=1.000000000000E+10
Cs N002 2 Q=(x*{Csat})+({C0}*{Vth}*arctan(sinh(x/{Vth})))-({Csat}*{Vth}*(arctan(sinh(x/{Vth}))))
Rs N001 1 {Rs}
Ls N001 N002 {Ls}
Rp N002 2 {Rp}
RGND1 0 N002 1e12
RGND2 2 0 1e12
.backanno
.ends
*******
.subckt 0402X7R_10nF_885012205031 1 2 
.param
+ C0=1.000000000000E-08
+ Csat=1.007546052384E-09
+ Vth=3.841043313378E+01
+ Rs=5.542000000000E-02
+ Cs=1.000000000000E-08
+ Ls=1.989300000000E-10
+ Rp=1.000000000000E+10
Cs N002 2 Q=(x*{Csat})+({C0}*{Vth}*arctan(sinh(x/{Vth})))-({Csat}*{Vth}*(arctan(sinh(x/{Vth}))))
Rs N001 1 {Rs}
Ls N001 N002 {Ls}
Rp N002 2 {Rp}
RGND1 0 N002 1e12
RGND2 2 0 1e12
.backanno
.ends
*******
.subckt 0402X5R_100nF_885012105016 1 2 
.param
+ C0=1.000000000000E-07
+ Csat=1.000008363640E-08
+ Vth=9.795964555268E+00
+ Rs=1.887727633600E-02
+ Cs=1.000000000000E-07
+ Ls=3.146889630000E-10
+ Rp=5.000000000000E+09
Cs N002 2 Q=(x*{Csat})+({C0}*{Vth}*arctan(sinh(x/{Vth})))-({Csat}*{Vth}*(arctan(sinh(x/{Vth}))))
Rs N001 1 {Rs}
Ls N001 N002 {Ls}
Rp N002 2 {Rp}
RGND1 0 N002 1e12
RGND2 2 0 1e12
.backanno
.ends
*******
.subckt 0402X5R_220nF_885012105017 1 2 
.param
+ C0=2.200000000000E-07
+ Csat=3.444913097176E-08
+ Vth=7.112354387601E+00
+ Rs=1.180135395850E-02
+ Cs=2.200000000000E-07
+ Ls=3.474600590000E-10
+ Rp=5.000000000000E+08
Cs N002 2 Q=(x*{Csat})+({C0}*{Vth}*arctan(sinh(x/{Vth})))-({Csat}*{Vth}*(arctan(sinh(x/{Vth}))))
Rs N001 1 {Rs}
Ls N001 N002 {Ls}
Rp N002 2 {Rp}
RGND1 0 N002 1e12
RGND2 2 0 1e12
.backanno
.ends
*******
.subckt 0402X7R_100pF_885012205019 1 2 
.param
+ C0=1.000000000000E-10
+ Csat=1.000000000000E-10
+ Vth=1.000000000000E+00
+ Rs=7.742800000000E-01
+ Cs=1.000000000000E-10
+ Ls=1.415400000000E-10
+ Rp=1.000000000000E+10
Cs N002 2 Q=(x*{Csat})+({C0}*{Vth}*arctan(sinh(x/{Vth})))-({Csat}*{Vth}*(arctan(sinh(x/{Vth}))))
Rs N001 1 {Rs}
Ls N001 N002 {Ls}
Rp N002 2 {Rp}
RGND1 0 N002 1e12
RGND2 2 0 1e12
.backanno
.ends
*******
.subckt 0402X7R_150pF_885012205020 1 2 
.param
+ C0=1.500000000000E-10
+ Csat=1.500000000000E-10
+ Vth=1.000000000000E+00
+ Rs=6.719200000000E-01
+ Cs=1.500000000000E-10
+ Ls=1.513400000000E-10
+ Rp=1.000000000000E+10
Cs N002 2 Q=(x*{Csat})+({C0}*{Vth}*arctan(sinh(x/{Vth})))-({Csat}*{Vth}*(arctan(sinh(x/{Vth}))))
Rs N001 1 {Rs}
Ls N001 N002 {Ls}
Rp N002 2 {Rp}
RGND1 0 N002 1e12
RGND2 2 0 1e12
.backanno
.ends
*******
.subckt 0402X7R_220pF_885012205021 1 2 
.param
+ C0=2.200000000000E-10
+ Csat=2.200000000000E-10
+ Vth=1.000000000000E+00
+ Rs=5.734000000000E-01
+ Cs=2.200000000000E-10
+ Ls=1.857900000000E-10
+ Rp=1.000000000000E+10
Cs N002 2 Q=(x*{Csat})+({C0}*{Vth}*arctan(sinh(x/{Vth})))-({Csat}*{Vth}*(arctan(sinh(x/{Vth}))))
Rs N001 1 {Rs}
Ls N001 N002 {Ls}
Rp N002 2 {Rp}
RGND1 0 N002 1e12
RGND2 2 0 1e12
.backanno
.ends
*******
.subckt 0402X7R_330pF_885012205022 1 2 
.param
+ C0=3.300000000000E-10
+ Csat=3.300000000000E-10
+ Vth=1.000000000000E+00
+ Rs=4.163600000000E-01
+ Cs=3.300000000000E-10
+ Ls=1.830000000000E-10
+ Rp=1.000000000000E+10
Cs N002 2 Q=(x*{Csat})+({C0}*{Vth}*arctan(sinh(x/{Vth})))-({Csat}*{Vth}*(arctan(sinh(x/{Vth}))))
Rs N001 1 {Rs}
Ls N001 N002 {Ls}
Rp N002 2 {Rp}
RGND1 0 N002 1e12
RGND2 2 0 1e12
.backanno
.ends
*******
.subckt 0402X7R_680pF_885012205024 1 2 
.param
+ C0=6.800000000000E-10
+ Csat=6.800000000000E-10
+ Vth=1.000000000000E+00
+ Rs=2.399400000000E-01
+ Cs=6.800000000000E-10
+ Ls=1.478400000000E-10
+ Rp=1.000000000000E+10
Cs N002 2 Q=(x*{Csat})+({C0}*{Vth}*arctan(sinh(x/{Vth})))-({Csat}*{Vth}*(arctan(sinh(x/{Vth}))))
Rs N001 1 {Rs}
Ls N001 N002 {Ls}
Rp N002 2 {Rp}
RGND1 0 N002 1e12
RGND2 2 0 1e12
.backanno
.ends
*******
.subckt 0402X7R_1nF_885012205025 1 2 
.param
+ C0=1.000000000000E-09
+ Csat=1.000000000000E-09
+ Vth=1.000000000000E+00
+ Rs=2.135223082420E-01
+ Cs=1.000000000000E-09
+ Ls=2.159256390000E-10
+ Rp=1.000000000000E+10
Cs N002 2 Q=(x*{Csat})+({C0}*{Vth}*arctan(sinh(x/{Vth})))-({Csat}*{Vth}*(arctan(sinh(x/{Vth}))))
Rs N001 1 {Rs}
Ls N001 N002 {Ls}
Rp N002 2 {Rp}
RGND1 0 N002 1e12
RGND2 2 0 1e12
.backanno
.ends
*******
.subckt 0402NP0_2-2pF_885012005021 1 2 
.param
+ Rs=3.742710431800E-01
+ Cs=2.200000000000E-12
+ Ls=2.397271220000E-10
+ Rp=1.000000000000E+10
Cs N002 2 {Cs}
Rs N001 1 {Rs}
Ls N001 N002 {Ls}
Rp N002 2 {Rp}
RGND1 0 N002 1e12
RGND2 2 0 1e12
.backanno
.ends
*******
.subckt 0402NP0_3-3pF_885012005022 1 2 
.param
+ Rs=3.940484406940E-01
+ Cs=3.300000000000E-12
+ Ls=2.607875640000E-10
+ Rp=1.000000000000E+10
Cs N002 2 {Cs}
Rs N001 1 {Rs}
Ls N001 N002 {Ls}
Rp N002 2 {Rp}
RGND1 0 N002 1e12
RGND2 2 0 1e12
.backanno
.ends
*******
.subckt 0402NP0_4-7pF_885012005023 1 2 
.param
+ Rs=4.759448184810E-01
+ Cs=4.700000000000E-12
+ Ls=2.972095780000E-10
+ Rp=1.000000000000E+10
Cs N002 2 {Cs}
Rs N001 1 {Rs}
Ls N001 N002 {Ls}
Rp N002 2 {Rp}
RGND1 0 N002 1e12
RGND2 2 0 1e12
.backanno
.ends
*******
.subckt 0402NP0_6-8pF_885012005024 1 2 
.param
+ Rs=3.578120516810E-01
+ Cs=6.800000000000E-12
+ Ls=2.435159530000E-10
+ Rp=1.000000000000E+10
Cs N002 2 {Cs}
Rs N001 1 {Rs}
Ls N001 N002 {Ls}
Rp N002 2 {Rp}
RGND1 0 N002 1e12
RGND2 2 0 1e12
.backanno
.ends
*******
.subckt 0402NP0_10pF_885012005025 1 2 
.param
+ Rs=4.863857549040E-01
+ Cs=1.000000000000E-11
+ Ls=3.424551860000E-10
+ Rp=1.000000000000E+10
Cs N002 2 {Cs}
Rs N001 1 {Rs}
Ls N001 N002 {Ls}
Rp N002 2 {Rp}
RGND1 0 N002 1e12
RGND2 2 0 1e12
.backanno
.ends
*******
.subckt 0402NP0_15pF_885012005026 1 2 
.param
+ Rs=3.850313260790E-01
+ Cs=1.500000000000E-11
+ Ls=3.025921650000E-10
+ Rp=1.000000000000E+10
Cs N002 2 {Cs}
Rs N001 1 {Rs}
Ls N001 N002 {Ls}
Rp N002 2 {Rp}
RGND1 0 N002 1e12
RGND2 2 0 1e12
.backanno
.ends
*******
.subckt 0402NP0_22pF_885012005027 1 2 
.param
+ Rs=3.048147185750E-01
+ Cs=2.200000000000E-11
+ Ls=3.024291400000E-10
+ Rp=1.000000000000E+10
Cs N002 2 {Cs}
Rs N001 1 {Rs}
Ls N001 N002 {Ls}
Rp N002 2 {Rp}
RGND1 0 N002 1e12
RGND2 2 0 1e12
.backanno
.ends
*******
.subckt 0402NP0_33pF_885012005028 1 2 
.param
+ Rs=2.448392520690E-01
+ Cs=3.300000000000E-11
+ Ls=2.434490820000E-10
+ Rp=1.000000000000E+10
Cs N002 2 {Cs}
Rs N001 1 {Rs}
Ls N001 N002 {Ls}
Rp N002 2 {Rp}
RGND1 0 N002 1e12
RGND2 2 0 1e12
.backanno
.ends
*******
.subckt 0402NP0_47pF_885012005029 1 2 
.param
+ Rs=1.992323303220E-01
+ Cs=4.700000000000E-11
+ Ls=2.793960570000E-10
+ Rp=1.000000000000E+10
Cs N002 2 {Cs}
Rs N001 1 {Rs}
Ls N001 N002 {Ls}
Rp N002 2 {Rp}
RGND1 0 N002 1e12
RGND2 2 0 1e12
.backanno
.ends
*******
.subckt 0402NP0_68pF_885012005030 1 2 
.param
+ Rs=1.832465708830E-01
+ Cs=6.800000000000E-11
+ Ls=2.432817470000E-10
+ Rp=1.000000000000E+10
Cs N002 2 {Cs}
Rs N001 1 {Rs}
Ls N001 N002 {Ls}
Rp N002 2 {Rp}
RGND1 0 N002 1e12
RGND2 2 0 1e12
.backanno
.ends
*******
.subckt 0402NP0_100pF_885012005031 1 2 
.param
+ Rs=1.256988150830E-01
+ Cs=1.000000000000E-10
+ Ls=2.368830120000E-10
+ Rp=1.000000000000E+10
Cs N002 2 {Cs}
Rs N001 1 {Rs}
Ls N001 N002 {Ls}
Rp N002 2 {Rp}
RGND1 0 N002 1e12
RGND2 2 0 1e12
.backanno
.ends
*******
.subckt 0402NP0_150pF_885012005032 1 2 
.param
+ Rs=9.147377647230E-02
+ Cs=1.500000000000E-10
+ Ls=2.048849840000E-10
+ Rp=1.000000000000E+10
Cs N002 2 {Cs}
Rs N001 1 {Rs}
Ls N001 N002 {Ls}
Rp N002 2 {Rp}
RGND1 0 N002 1e12
RGND2 2 0 1e12
.backanno
.ends
*******
.subckt 0402NP0_220pF_885012005033 1 2 
.param
+ Rs=7.845997441380E-02
+ Cs=2.200000000000E-10
+ Ls=2.058010810000E-10
+ Rp=1.000000000000E+10
Cs N002 2 {Cs}
Rs N001 1 {Rs}
Ls N001 N002 {Ls}
Rp N002 2 {Rp}
RGND1 0 N002 1e12
RGND2 2 0 1e12
.backanno
.ends
*******
.subckt 0603X7R_22nF_885012206042 1 2 
.param
+ C0=2.200000000000E-08
+ Csat=1.872767020057E-08
+ Vth=1.497318739324E+03
+ Rs=3.181000000000E-02
+ Cs=2.200000000000E-08
+ Ls=2.422500000000E-10
+ Rp=1.000000000000E+10
Cs N002 2 Q=(x*{Csat})+({C0}*{Vth}*arctan(sinh(x/{Vth})))-({Csat}*{Vth}*(arctan(sinh(x/{Vth}))))
Rs N001 1 {Rs}
Ls N001 N002 {Ls}
Rp N002 2 {Rp}
RGND1 0 N002 1e12
RGND2 2 0 1e12
.backanno
.ends
*******
.subckt 0603X7R_15nF_885012206041 1 2 
.param
+ C0=1.500000000000E-08
+ Csat=1.316973191098E-08
+ Vth=1.561283273641E+03
+ Rs=4.438000000000E-02
+ Cs=1.500000000000E-08
+ Ls=3.184400000000E-10
+ Rp=1.000000000000E+10
Cs N002 2 Q=(x*{Csat})+({C0}*{Vth}*arctan(sinh(x/{Vth})))-({Csat}*{Vth}*(arctan(sinh(x/{Vth}))))
Rs N001 1 {Rs}
Ls N001 N002 {Ls}
Rp N002 2 {Rp}
RGND1 0 N002 1e12
RGND2 2 0 1e12
.backanno
.ends
*******
.subckt 0603X7R_10nF_885012206040 1 2 
.param
+ C0=1.000000000000E-08
+ Csat=8.908314442447E-09
+ Vth=1.436653908798E+03
+ Rs=6.145000000000E-02
+ Cs=1.000000000000E-08
+ Ls=3.605800000000E-10
+ Rp=1.000000000000E+10
Cs N002 2 Q=(x*{Csat})+({C0}*{Vth}*arctan(sinh(x/{Vth})))-({Csat}*{Vth}*(arctan(sinh(x/{Vth}))))
Rs N001 1 {Rs}
Ls N001 N002 {Ls}
Rp N002 2 {Rp}
RGND1 0 N002 1e12
RGND2 2 0 1e12
.backanno
.ends
*******
.subckt 0603X7R_47nF_885012206044 1 2 
.param
+ C0=4.700000000000E-08
+ Csat=7.109156625243E-09
+ Vth=4.990645864286E+01
+ Rs=1.525000000000E-02
+ Cs=4.700000000000E-08
+ Ls=2.714100000000E-10
+ Rp=1.000000000000E+10
Cs N002 2 Q=(x*{Csat})+({C0}*{Vth}*arctan(sinh(x/{Vth})))-({Csat}*{Vth}*(arctan(sinh(x/{Vth}))))
Rs N001 1 {Rs}
Ls N001 N002 {Ls}
Rp N002 2 {Rp}
RGND1 0 N002 1e12
RGND2 2 0 1e12
.backanno
.ends
*******
.subckt 0603X7R_33nF_885012206043 1 2 
.param
+ C0=3.300000000000E-08
+ Csat=3.300037079222E-09
+ Vth=4.573620002863E+01
+ Rs=2.195000000000E-02
+ Cs=3.300000000000E-08
+ Ls=3.055800000000E-10
+ Rp=1.000000000000E+10
Cs N002 2 Q=(x*{Csat})+({C0}*{Vth}*arctan(sinh(x/{Vth})))-({Csat}*{Vth}*(arctan(sinh(x/{Vth}))))
Rs N001 1 {Rs}
Ls N001 N002 {Ls}
Rp N002 2 {Rp}
RGND1 0 N002 1e12
RGND2 2 0 1e12
.backanno
.ends
*******
.subckt 0603X7R_68nF_885012206045 1 2 
.param
+ C0=6.800000000000E-08
+ Csat=6.804270692442E-09
+ Vth=2.463595241524E+01
+ Rs=1.508000000000E-02
+ Cs=6.800000000000E-08
+ Ls=3.077900000000E-10
+ Rp=7.400000000000E+09
Cs N002 2 Q=(x*{Csat})+({C0}*{Vth}*arctan(sinh(x/{Vth})))-({Csat}*{Vth}*(arctan(sinh(x/{Vth}))))
Rs N001 1 {Rs}
Ls N001 N002 {Ls}
Rp N002 2 {Rp}
RGND1 0 N002 1e12
RGND2 2 0 1e12
.backanno
.ends
*******
.subckt 0603X7R_100nF_885012206046 1 2 
.param
+ C0=1.000000000000E-07
+ Csat=1.007004521900E-08
+ Vth=2.306984211239E+01
+ Rs=1.893130248220E-02
+ Cs=1.000000000000E-07
+ Ls=4.507368590000E-10
+ Rp=5.000000000000E+09
Cs N002 2 Q=(x*{Csat})+({C0}*{Vth}*arctan(sinh(x/{Vth})))-({Csat}*{Vth}*(arctan(sinh(x/{Vth}))))
Rs N001 1 {Rs}
Ls N001 N002 {Ls}
Rp N002 2 {Rp}
RGND1 0 N002 1e12
RGND2 2 0 1e12
.backanno
.ends
*******
.subckt 0603X5R_220nF_885012106013 1 2 
.param
+ C0=2.200000000000E-07
+ Csat=2.200062506204E-08
+ Vth=2.259247140947E+01
+ Rs=1.116782113860E-02
+ Cs=2.200000000000E-07
+ Ls=2.409560550000E-10
+ Rp=2.300000000000E+09
Cs N002 2 Q=(x*{Csat})+({C0}*{Vth}*arctan(sinh(x/{Vth})))-({Csat}*{Vth}*(arctan(sinh(x/{Vth}))))
Rs N001 1 {Rs}
Ls N001 N002 {Ls}
Rp N002 2 {Rp}
RGND1 0 N002 1e12
RGND2 2 0 1e12
.backanno
.ends
*******
.subckt 0603X7R_1uF_885012206052 1 2 
.param
+ C0=1.000000000000E-06
+ Csat=1.000000006902E-07
+ Vth=8.279064528463E+00
+ Rs=7.428214024860E-03
+ Cs=1.000000000000E-06
+ Ls=2.511429930000E-10
+ Rp=1.000000000000E+08
Cs N002 2 Q=(x*{Csat})+({C0}*{Vth}*arctan(sinh(x/{Vth})))-({Csat}*{Vth}*(arctan(sinh(x/{Vth}))))
Rs N001 1 {Rs}
Ls N001 N002 {Ls}
Rp N002 2 {Rp}
RGND1 0 N002 1e12
RGND2 2 0 1e12
.backanno
.ends
*******
.subckt 0603X7R_330nF_885012206049 1 2 
.param
+ C0=3.300000000000E-07
+ Csat=3.300000608635E-08
+ Vth=1.140562770748E+01
+ Rs=1.178789765580E-02
+ Cs=3.300000000000E-07
+ Ls=3.931329500000E-10
+ Rp=1.500000000000E+09
Cs N002 2 Q=(x*{Csat})+({C0}*{Vth}*arctan(sinh(x/{Vth})))-({Csat}*{Vth}*(arctan(sinh(x/{Vth}))))
Rs N001 1 {Rs}
Ls N001 N002 {Ls}
Rp N002 2 {Rp}
RGND1 0 N002 1e12
RGND2 2 0 1e12
.backanno
.ends
*******
.subckt 0603X7R_220nF_885012206048 1 2 
.param
+ C0=2.200000000000E-07
+ Csat=2.200000034449E-08
+ Vth=1.302594220288E+01
+ Rs=1.390271119920E-02
+ Cs=2.200000000000E-07
+ Ls=4.409846180000E-10
+ Rp=2.300000000000E+09
Cs N002 2 Q=(x*{Csat})+({C0}*{Vth}*arctan(sinh(x/{Vth})))-({Csat}*{Vth}*(arctan(sinh(x/{Vth}))))
Rs N001 1 {Rs}
Ls N001 N002 {Ls}
Rp N002 2 {Rp}
RGND1 0 N002 1e12
RGND2 2 0 1e12
.backanno
.ends
*******
.subckt 0603X7R_470nF_885012206050 1 2 
.param
+ C0=4.700000000000E-07
+ Csat=4.700000002226E-08
+ Vth=1.145156752467E+01
+ Rs=9.305039661980E-03
+ Cs=4.700000000000E-07
+ Ls=4.279888310000E-10
+ Rp=1.100000000000E+09
Cs N002 2 Q=(x*{Csat})+({C0}*{Vth}*arctan(sinh(x/{Vth})))-({Csat}*{Vth}*(arctan(sinh(x/{Vth}))))
Rs N001 1 {Rs}
Ls N001 N002 {Ls}
Rp N002 2 {Rp}
RGND1 0 N002 1e12
RGND2 2 0 1e12
.backanno
.ends
*******
.subckt 0603X7R_680nF_885012206051 1 2 
.param
+ C0=6.800000000000E-07
+ Csat=6.800000006138E-08
+ Vth=9.746245902676E+00
+ Rs=7.300972818160E-03
+ Cs=6.800000000000E-07
+ Ls=4.292077500000E-10
+ Rp=7.000000000000E+08
Cs N002 2 Q=(x*{Csat})+({C0}*{Vth}*arctan(sinh(x/{Vth})))-({Csat}*{Vth}*(arctan(sinh(x/{Vth}))))
Rs N001 1 {Rs}
Ls N001 N002 {Ls}
Rp N002 2 {Rp}
RGND1 0 N002 1e12
RGND2 2 0 1e12
.backanno
.ends
*******
.subckt 0603X7R_150nF_885012206047 1 2 
.param
+ C0=1.500000000000E-07
+ Csat=1.500000216710E-08
+ Vth=1.310724617783E+01
+ Rs=1.922050948650E-02
+ Cs=1.500000000000E-07
+ Ls=4.767070500000E-10
+ Rp=3.300000000000E+09
Cs N002 2 Q=(x*{Csat})+({C0}*{Vth}*arctan(sinh(x/{Vth})))-({Csat}*{Vth}*(arctan(sinh(x/{Vth}))))
Rs N001 1 {Rs}
Ls N001 N002 {Ls}
Rp N002 2 {Rp}
RGND1 0 N002 1e12
RGND2 2 0 1e12
.backanno
.ends
*******
.subckt 0603X5R_470nF_885012106015 1 2 
.param
+ C0=4.700000000000E-07
+ Csat=4.700000568410E-08
+ Vth=1.119106873383E+01
+ Rs=1.174352800970E-02
+ Cs=4.700000000000E-07
+ Ls=2.507480070000E-10
+ Rp=1.100000000000E+09
Cs N002 2 Q=(x*{Csat})+({C0}*{Vth}*arctan(sinh(x/{Vth})))-({Csat}*{Vth}*(arctan(sinh(x/{Vth}))))
Rs N001 1 {Rs}
Ls N001 N002 {Ls}
Rp N002 2 {Rp}
RGND1 0 N002 1e12
RGND2 2 0 1e12
.backanno
.ends
*******
.subckt 0603X5R_330nF_885012106014 1 2 
.param
+ C0=3.300000000000E-07
+ Csat=3.300000056798E-08
+ Vth=1.097760722753E+01
+ Rs=1.174352800970E-02
+ Cs=3.300000000000E-07
+ Ls=3.107480070000E-10
+ Rp=1.500000000000E+09
Cs N002 2 Q=(x*{Csat})+({C0}*{Vth}*arctan(sinh(x/{Vth})))-({Csat}*{Vth}*(arctan(sinh(x/{Vth}))))
Rs N001 1 {Rs}
Ls N001 N002 {Ls}
Rp N002 2 {Rp}
RGND1 0 N002 1e12
RGND2 2 0 1e12
.backanno
.ends
*******
.subckt 0603X5R_680nF_885012106016 1 2 
.param
+ C0=6.800000000000E-07
+ Csat=9.683802816372E-08
+ Vth=5.309344303187E+00
+ Rs=1.276190861180E-02
+ Cs=6.800000000000E-07
+ Ls=3.658012010000E-10
+ Rp=7.000000000000E+08
Cs N002 2 Q=(x*{Csat})+({C0}*{Vth}*arctan(sinh(x/{Vth})))-({Csat}*{Vth}*(arctan(sinh(x/{Vth}))))
Rs N001 1 {Rs}
Ls N001 N002 {Ls}
Rp N002 2 {Rp}
RGND1 0 N002 1e12
RGND2 2 0 1e12
.backanno
.ends
*******
.subckt 0603X5R_1uF_885012106017 1 2 
.param
+ C0=1.000000000000E-06
+ Csat=1.445307210002E-07
+ Vth=5.162500583346E+00
+ Rs=7.451354120080E-03
+ Cs=1.000000000000E-06
+ Ls=3.040866270000E-10
+ Rp=1.000000000000E+08
Cs N002 2 Q=(x*{Csat})+({C0}*{Vth}*arctan(sinh(x/{Vth})))-({Csat}*{Vth}*(arctan(sinh(x/{Vth}))))
Rs N001 1 {Rs}
Ls N001 N002 {Ls}
Rp N002 2 {Rp}
RGND1 0 N002 1e12
RGND2 2 0 1e12
.backanno
.ends
*******
.subckt 0603X5R_2-2uF_885012106018 1 2 
.param
+ C0=2.200000000000E-06
+ Csat=3.622955216668E-07
+ Vth=4.485937392792E+00
+ Rs=7.211835016350E-03
+ Cs=2.200000000000E-06
+ Ls=2.593453030000E-10
+ Rp=5.000000000000E+07
Cs N002 2 Q=(x*{Csat})+({C0}*{Vth}*arctan(sinh(x/{Vth})))-({Csat}*{Vth}*(arctan(sinh(x/{Vth}))))
Rs N001 1 {Rs}
Ls N001 N002 {Ls}
Rp N002 2 {Rp}
RGND1 0 N002 1e12
RGND2 2 0 1e12
.backanno
.ends
*******
.subckt 0603X7R_100pF_885012206028 1 2 
.param
+ C0=1.000000000000E-10
+ Csat=1.000000000000E-10
+ Vth=1.000000000000E+00
+ Rs=8.327900000000E-01
+ Cs=1.000000000000E-10
+ Ls=2.628300000000E-10
+ Rp=1.000000000000E+10
Cs N002 2 Q=(x*{Csat})+({C0}*{Vth}*arctan(sinh(x/{Vth})))-({Csat}*{Vth}*(arctan(sinh(x/{Vth}))))
Rs N001 1 {Rs}
Ls N001 N002 {Ls}
Rp N002 2 {Rp}
RGND1 0 N002 1e12
RGND2 2 0 1e12
.backanno
.ends
*******
.subckt 0603X7R_150pF_885012206029 1 2 
.param
+ C0=1.500000000000E-10
+ Csat=1.500000000000E-10
+ Vth=1.000000000000E+00
+ Rs=6.844300000000E-01
+ Cs=1.500000000000E-10
+ Ls=2.904100000000E-10
+ Rp=1.000000000000E+10
Cs N002 2 Q=(x*{Csat})+({C0}*{Vth}*arctan(sinh(x/{Vth})))-({Csat}*{Vth}*(arctan(sinh(x/{Vth}))))
Rs N001 1 {Rs}
Ls N001 N002 {Ls}
Rp N002 2 {Rp}
RGND1 0 N002 1e12
RGND2 2 0 1e12
.backanno
.ends
*******
.subckt 0603X7R_220pF_885012206030 1 2 
.param
+ C0=2.200000000000E-10
+ Csat=2.200000000000E-10
+ Vth=1.000000000000E+00
+ Rs=4.938200000000E-01
+ Cs=2.200000000000E-10
+ Ls=2.877400000000E-10
+ Rp=1.000000000000E+10
Cs N002 2 Q=(x*{Csat})+({C0}*{Vth}*arctan(sinh(x/{Vth})))-({Csat}*{Vth}*(arctan(sinh(x/{Vth}))))
Rs N001 1 {Rs}
Ls N001 N002 {Ls}
Rp N002 2 {Rp}
RGND1 0 N002 1e12
RGND2 2 0 1e12
.backanno
.ends
*******
.subckt 0603X7R_330pF_885012206031 1 2 
.param
+ C0=3.300000000000E-10
+ Csat=3.300000000000E-10
+ Vth=1.000000000000E+00
+ Rs=4.404000000000E-01
+ Cs=3.300000000000E-10
+ Ls=3.403500000000E-10
+ Rp=1.000000000000E+10
Cs N002 2 Q=(x*{Csat})+({C0}*{Vth}*arctan(sinh(x/{Vth})))-({Csat}*{Vth}*(arctan(sinh(x/{Vth}))))
Rs N001 1 {Rs}
Ls N001 N002 {Ls}
Rp N002 2 {Rp}
RGND1 0 N002 1e12
RGND2 2 0 1e12
.backanno
.ends
*******
.subckt 0603X7R_470pF_885012206032 1 2 
.param
+ C0=4.700000000000E-10
+ Csat=4.700000000000E-10
+ Vth=1.000000000000E+00
+ Rs=3.202700000000E-01
+ Cs=4.700000000000E-10
+ Ls=3.227900000000E-10
+ Rp=1.000000000000E+10
Cs N002 2 Q=(x*{Csat})+({C0}*{Vth}*arctan(sinh(x/{Vth})))-({Csat}*{Vth}*(arctan(sinh(x/{Vth}))))
Rs N001 1 {Rs}
Ls N001 N002 {Ls}
Rp N002 2 {Rp}
RGND1 0 N002 1e12
RGND2 2 0 1e12
.backanno
.ends
*******
.subckt 0603X7R_680pF_885012206033 1 2 
.param
+ C0=6.800000000000E-10
+ Csat=6.800000000000E-10
+ Vth=1.000000000000E+00
+ Rs=3.107600000000E-01
+ Cs=6.800000000000E-10
+ Ls=3.708900000000E-10
+ Rp=1.000000000000E+10
Cs N002 2 Q=(x*{Csat})+({C0}*{Vth}*arctan(sinh(x/{Vth})))-({Csat}*{Vth}*(arctan(sinh(x/{Vth}))))
Rs N001 1 {Rs}
Ls N001 N002 {Ls}
Rp N002 2 {Rp}
RGND1 0 N002 1e12
RGND2 2 0 1e12
.backanno
.ends
*******
.subckt 0603X7R_1nF_885012206034 1 2 
.param
+ C0=1.000000000000E-09
+ Csat=1.000000000000E-09
+ Vth=1.000000000000E+00
+ Rs=2.266000000000E-01
+ Cs=1.000000000000E-09
+ Ls=4.004100000000E-10
+ Rp=1.000000000000E+10
Cs N002 2 Q=(x*{Csat})+({C0}*{Vth}*arctan(sinh(x/{Vth})))-({Csat}*{Vth}*(arctan(sinh(x/{Vth}))))
Rs N001 1 {Rs}
Ls N001 N002 {Ls}
Rp N002 2 {Rp}
RGND1 0 N002 1e12
RGND2 2 0 1e12
.backanno
.ends
*******
.subckt 0603X7R_1-5nF_885012206035 1 2 
.param
+ C0=1.500000000000E-09
+ Csat=1.500000000000E-09
+ Vth=1.000000000000E+00
+ Rs=1.394400000000E-01
+ Cs=1.500000000000E-09
+ Ls=3.269200000000E-10
+ Rp=1.000000000000E+10
Cs N002 2 Q=(x*{Csat})+({C0}*{Vth}*arctan(sinh(x/{Vth})))-({Csat}*{Vth}*(arctan(sinh(x/{Vth}))))
Rs N001 1 {Rs}
Ls N001 N002 {Ls}
Rp N002 2 {Rp}
RGND1 0 N002 1e12
RGND2 2 0 1e12
.backanno
.ends
*******
.subckt 0603X7R_2-2nF_885012206036 1 2 
.param
+ C0=2.200000000000E-09
+ Csat=2.200000000000E-09
+ Vth=1.000000000000E+00
+ Rs=1.218500000000E-01
+ Cs=2.200000000000E-09
+ Ls=3.088800000000E-10
+ Rp=1.000000000000E+10
Cs N002 2 Q=(x*{Csat})+({C0}*{Vth}*arctan(sinh(x/{Vth})))-({Csat}*{Vth}*(arctan(sinh(x/{Vth}))))
Rs N001 1 {Rs}
Ls N001 N002 {Ls}
Rp N002 2 {Rp}
RGND1 0 N002 1e12
RGND2 2 0 1e12
.backanno
.ends
*******
.subckt 0603X7R_3-3nF_885012206037 1 2 
.param
+ C0=3.300000000000E-09
+ Csat=3.300000000000E-09
+ Vth=1.000000000000E+00
+ Rs=9.930000000000E-02
+ Cs=3.300000000000E-09
+ Ls=3.002400000000E-10
+ Rp=1.000000000000E+10
Cs N002 2 Q=(x*{Csat})+({C0}*{Vth}*arctan(sinh(x/{Vth})))-({Csat}*{Vth}*(arctan(sinh(x/{Vth}))))
Rs N001 1 {Rs}
Ls N001 N002 {Ls}
Rp N002 2 {Rp}
RGND1 0 N002 1e12
RGND2 2 0 1e12
.backanno
.ends
*******
.subckt 0603X7R_4-7nF_885012206038 1 2 
.param
+ C0=4.700000000000E-09
+ Csat=4.700000000000E-09
+ Vth=1.000000000000E+00
+ Rs=8.255573987090E-02
+ Cs=4.700000000000E-09
+ Ls=2.589664710000E-10
+ Rp=1.000000000000E+10
Cs N002 2 Q=(x*{Csat})+({C0}*{Vth}*arctan(sinh(x/{Vth})))-({Csat}*{Vth}*(arctan(sinh(x/{Vth}))))
Rs N001 1 {Rs}
Ls N001 N002 {Ls}
Rp N002 2 {Rp}
RGND1 0 N002 1e12
RGND2 2 0 1e12
.backanno
.ends
*******
.subckt 0603X7R_6-8nF_885012206039 1 2 
.param
+ C0=6.800000000000E-09
+ Csat=6.800000000000E-09
+ Vth=1.000000000000E+00
+ Rs=6.147000000000E-02
+ Cs=6.800000000000E-09
+ Ls=3.508300000000E-10
+ Rp=1.000000000000E+10
Cs N002 2 Q=(x*{Csat})+({C0}*{Vth}*arctan(sinh(x/{Vth})))-({Csat}*{Vth}*(arctan(sinh(x/{Vth}))))
Rs N001 1 {Rs}
Ls N001 N002 {Ls}
Rp N002 2 {Rp}
RGND1 0 N002 1e12
RGND2 2 0 1e12
.backanno
.ends
*******
.subckt 0603NP0_10pF_885012006017 1 2 
.param
+ Rs=4.238423835000E-01
+ Cs=1.000000000000E-11
+ Ls=6.154546530000E-10
+ Rp=1.000000000000E+10
Cs N002 2 {Cs}
Rs N001 1 {Rs}
Ls N001 N002 {Ls}
Rp N002 2 {Rp}
RGND1 0 N002 1e12
RGND2 2 0 1e12
.backanno
.ends
*******
.subckt 0603NP0_15pF_885012006018 1 2 
.param
+ Rs=3.319032161450E-01
+ Cs=1.500000000000E-11
+ Ls=4.695408470000E-10
+ Rp=1.000000000000E+10
Cs N002 2 {Cs}
Rs N001 1 {Rs}
Ls N001 N002 {Ls}
Rp N002 2 {Rp}
RGND1 0 N002 1e12
RGND2 2 0 1e12
.backanno
.ends
*******
.subckt 0603NP0_22pF_885012006019 1 2 
.param
+ Rs=3.482017217230E-01
+ Cs=2.200000000000E-11
+ Ls=5.509639610000E-10
+ Rp=1.000000000000E+10
Cs N002 2 {Cs}
Rs N001 1 {Rs}
Ls N001 N002 {Ls}
Rp N002 2 {Rp}
RGND1 0 N002 1e12
RGND2 2 0 1e12
.backanno
.ends
*******
.subckt 0603NP0_33pF_885012006020 1 2 
.param
+ Rs=3.377857579570E-01
+ Cs=3.300000000000E-11
+ Ls=7.342442230000E-10
+ Rp=1.000000000000E+10
Cs N002 2 {Cs}
Rs N001 1 {Rs}
Ls N001 N002 {Ls}
Rp N002 2 {Rp}
RGND1 0 N002 1e12
RGND2 2 0 1e12
.backanno
.ends
*******
.subckt 0603NP0_47pF_885012006021 1 2 
.param
+ Rs=2.562610409810E-01
+ Cs=4.700000000000E-11
+ Ls=6.941503380000E-10
+ Rp=1.000000000000E+10
Cs N002 2 {Cs}
Rs N001 1 {Rs}
Ls N001 N002 {Ls}
Rp N002 2 {Rp}
RGND1 0 N002 1e12
RGND2 2 0 1e12
.backanno
.ends
*******
.subckt 0603NP0_68pF_885012006022 1 2 
.param
+ Rs=1.619137409010E-01
+ Cs=6.800000000000E-11
+ Ls=6.389996740000E-10
+ Rp=1.000000000000E+10
Cs N002 2 {Cs}
Rs N001 1 {Rs}
Ls N001 N002 {Ls}
Rp N002 2 {Rp}
RGND1 0 N002 1e12
RGND2 2 0 1e12
.backanno
.ends
*******
.subckt 0603NP0_100pF_885012006023 1 2 
.param
+ Rs=1.234590096570E-01
+ Cs=1.000000000000E-10
+ Ls=6.005738160000E-10
+ Rp=1.000000000000E+10
Cs N002 2 {Cs}
Rs N001 1 {Rs}
Ls N001 N002 {Ls}
Rp N002 2 {Rp}
RGND1 0 N002 1e12
RGND2 2 0 1e12
.backanno
.ends
*******
.subckt 0603NP0_150pF_885012006024 1 2 
.param
+ Rs=1.107885434590E-01
+ Cs=1.500000000000E-10
+ Ls=5.597772750000E-10
+ Rp=1.000000000000E+10
Cs N002 2 {Cs}
Rs N001 1 {Rs}
Ls N001 N002 {Ls}
Rp N002 2 {Rp}
RGND1 0 N002 1e12
RGND2 2 0 1e12
.backanno
.ends
*******
.subckt 0603NP0_220pF_885012006025 1 2 
.param
+ Rs=9.883852164260E-02
+ Cs=2.200000000000E-10
+ Ls=5.645047610000E-10
+ Rp=1.000000000000E+10
Cs N002 2 {Cs}
Rs N001 1 {Rs}
Ls N001 N002 {Ls}
Rp N002 2 {Rp}
RGND1 0 N002 1e12
RGND2 2 0 1e12
.backanno
.ends