**************************************************
* Manufacturer:          Würth Elektronik
* Kinds:                 MLCCs Capacitors
* Matchcode:             WCAP-CSGP 50V DC bias
* Library Type:          LTspice
* Version:               rev22c
* Created/modified by:   Richard
* Date and Time:         2022/10/14
* Team:                  eiSos EDA Service  
* Contact:               libraries@we-online.com
**************************************************
* Copyright(C) 2022 Würth Elektronik eiSos GmbH & Co. KG
* All Rights Reserved.
**************************************************
* Disclaimer: While Würth Elektronik eiSos has made every reasonable effort to ensure the accuracy
* of the simulation models provided, Würth Elektronik eiSos does not guarantee the exemption of error on
* the simulation models, nor does Würth Elektronik eiSos guarantee that the simulation model is current.
* Würth Elektronik eiSos reserves the right to make any adjustments at any time without notice.
* Würth Elektronik eiSos expressly disclaims all implied warranties regarding this simulation model.
**************************************************
.subckt 0402X7R_1nF_885012205061 1 2 
.param
+ C0=1.000000000000E-09
+ Csat=6.190503187191E-10
+ Vth=4.734240817589E+03
+ Rs=1.668200000000E-01
+ Cs=1.000000000000E-09
+ Ls=2.754200000000E-10
+ Rp=1.000000000000E+10
Cs N002 2 Q=(x*{Csat})+({C0}*{Vth}*arctan(sinh(x/{Vth})))-({Csat}*{Vth}*(arctan(sinh(x/{Vth}))))
Rs N001 1 {Rs}
Ls N001 N002 {Ls}
Rp N002 2 {Rp}
RGND1 0 N002 1e12
RGND2 2 0 1e12
.backanno
.ends
*******
.subckt 0402X7R_470pF_885012205059 1 2 
.param
+ C0=4.700000000000E-10
+ Csat=4.700010652721E-11
+ Vth=1.874977813450E+02
+ Rs=3.418911877330E-01
+ Cs=4.700000000000E-10
+ Ls=1.533528940000E-10
+ Rp=1.000000000000E+10
Cs N002 2 Q=(x*{Csat})+({C0}*{Vth}*arctan(sinh(x/{Vth})))-({Csat}*{Vth}*(arctan(sinh(x/{Vth}))))
Rs N001 1 {Rs}
Ls N001 N002 {Ls}
Rp N002 2 {Rp}
RGND1 0 N002 1e12
RGND2 2 0 1e12
.backanno
.ends
*******
.subckt 0402X7R_220pF_885012205057 1 2 
.param
+ C0=2.200000000000E-10
+ Csat=2.210428449639E-11
+ Vth=1.915193532662E+02
+ Rs=5.789640140050E-01
+ Cs=2.200000000000E-10
+ Ls=1.692321450000E-10
+ Rp=1.000000000000E+10
Cs N002 2 Q=(x*{Csat})+({C0}*{Vth}*arctan(sinh(x/{Vth})))-({Csat}*{Vth}*(arctan(sinh(x/{Vth}))))
Rs N001 1 {Rs}
Ls N001 N002 {Ls}
Rp N002 2 {Rp}
RGND1 0 N002 1e12
RGND2 2 0 1e12
.backanno
.ends
*******
.subckt 0402X7R_330pF_885012205058 1 2 
.param
+ C0=3.300000000000E-10
+ Csat=3.620672389359E-11
+ Vth=1.734913138256E+02
+ Rs=5.035531037150E-01
+ Cs=3.300000000000E-10
+ Ls=1.676737780000E-10
+ Rp=1.000000000000E+10
Cs N002 2 Q=(x*{Csat})+({C0}*{Vth}*arctan(sinh(x/{Vth})))-({Csat}*{Vth}*(arctan(sinh(x/{Vth}))))
Rs N001 1 {Rs}
Ls N001 N002 {Ls}
Rp N002 2 {Rp}
RGND1 0 N002 1e12
RGND2 2 0 1e12
.backanno
.ends
*******
.subckt 0402X7R_680pF_885012205060 1 2 
.param
+ C0=6.800000000000E-10
+ Csat=6.802200790649E-11
+ Vth=1.535192969178E+02
+ Rs=2.917768772740E-01
+ Cs=6.800000000000E-10
+ Ls=1.907275310000E-10
+ Rp=1.000000000000E+10
Cs N002 2 Q=(x*{Csat})+({C0}*{Vth}*arctan(sinh(x/{Vth})))-({Csat}*{Vth}*(arctan(sinh(x/{Vth}))))
Rs N001 1 {Rs}
Ls N001 N002 {Ls}
Rp N002 2 {Rp}
RGND1 0 N002 1e12
RGND2 2 0 1e12
.backanno
.ends
*******
.subckt 0402X7R_4-7nF_885012205065 1 2 
.param
+ C0=4.700000000000E-09
+ Csat=4.700040103778E-10
+ Vth=5.611406724915E+01
+ Rs=1.266549665600E-01
+ Cs=4.700000000000E-09
+ Ls=2.405530520000E-10
+ Rp=1.000000000000E+10
Cs N002 2 Q=(x*{Csat})+({C0}*{Vth}*arctan(sinh(x/{Vth})))-({Csat}*{Vth}*(arctan(sinh(x/{Vth}))))
Rs N001 1 {Rs}
Ls N001 N002 {Ls}
Rp N002 2 {Rp}
RGND1 0 N002 1e12
RGND2 2 0 1e12
.backanno
.ends
*******
.subckt 0402X7R_100nF_885012205086 1 2 
.param
+ C0=1.000000000000E-07
+ Csat=1.000000000000E-08
+ Vth=1.000000000000E+01
+ Rs=7.000000000000E-02
+ Cs=1.000000000000E-07
+ Ls=5.500000000000E-10
+ Rp=1.000000000000E+09
Cs N002 2 Q=(x*{Csat})+({C0}*{Vth}*arctan(sinh(x/{Vth})))-({Csat}*{Vth}*(arctan(sinh(x/{Vth}))))
Rs N001 1 {Rs}
Ls N001 N002 {Ls}
Rp N002 2 {Rp}
RGND1 0 N002 1e12
RGND2 2 0 1e12
.backanno
.ends
*******
.subckt 0402X7R_3-3nF_885012205064 1 2 
.param
+ C0=3.300000000000E-09
+ Csat=3.300006267092E-10
+ Vth=5.037111847598E+01
+ Rs=1.280325351190E-01
+ Cs=3.300000000000E-09
+ Ls=2.212297210000E-10
+ Rp=1.000000000000E+10
Cs N002 2 Q=(x*{Csat})+({C0}*{Vth}*arctan(sinh(x/{Vth})))-({Csat}*{Vth}*(arctan(sinh(x/{Vth}))))
Rs N001 1 {Rs}
Ls N001 N002 {Ls}
Rp N002 2 {Rp}
RGND1 0 N002 1e12
RGND2 2 0 1e12
.backanno
.ends
*******
.subckt 0402X7R_10nF_885012205067 1 2 
.param
+ C0=1.000000000000E-08
+ Csat=1.000002239821E-09
+ Vth=4.136065933443E+01
+ Rs=1.109421812950E-01
+ Cs=1.000000000000E-08
+ Ls=1.636171330000E-10
+ Rp=1.000000000000E+10
Cs N002 2 Q=(x*{Csat})+({C0}*{Vth}*arctan(sinh(x/{Vth})))-({Csat}*{Vth}*(arctan(sinh(x/{Vth}))))
Rs N001 1 {Rs}
Ls N001 N002 {Ls}
Rp N002 2 {Rp}
RGND1 0 N002 1e12
RGND2 2 0 1e12
.backanno
.ends
*******
.subckt 0402X7R_6-8nF_885012205066 1 2 
.param
+ C0=6.800000000000E-09
+ Csat=6.800009326875E-10
+ Vth=4.279429140607E+01
+ Rs=1.037896894990E-01
+ Cs=6.800000000000E-09
+ Ls=1.906453360000E-10
+ Rp=1.000000000000E+10
Cs N002 2 Q=(x*{Csat})+({C0}*{Vth}*arctan(sinh(x/{Vth})))-({Csat}*{Vth}*(arctan(sinh(x/{Vth}))))
Rs N001 1 {Rs}
Ls N001 N002 {Ls}
Rp N002 2 {Rp}
RGND1 0 N002 1e12
RGND2 2 0 1e12
.backanno
.ends
*******
.subckt 0402X7R_1-5nF_885012205062 1 2 
.param
+ C0=1.500000000000E-09
+ Csat=1.500022390426E-10
+ Vth=5.603455740399E+01
+ Rs=3.181491327390E-01
+ Cs=1.500000000000E-09
+ Ls=2.000304160000E-10
+ Rp=1.000000000000E+10
Cs N002 2 Q=(x*{Csat})+({C0}*{Vth}*arctan(sinh(x/{Vth})))-({Csat}*{Vth}*(arctan(sinh(x/{Vth}))))
Rs N001 1 {Rs}
Ls N001 N002 {Ls}
Rp N002 2 {Rp}
RGND1 0 N002 1e12
RGND2 2 0 1e12
.backanno
.ends
*******
.subckt 0402X7R_2-2nF_885012205063 1 2 
.param
+ C0=2.200000000000E-09
+ Csat=2.200030369144E-10
+ Vth=5.538284666758E+01
+ Rs=1.679405344320E-01
+ Cs=2.200000000000E-09
+ Ls=1.965290500000E-10
+ Rp=1.000000000000E+10
Cs N002 2 Q=(x*{Csat})+({C0}*{Vth}*arctan(sinh(x/{Vth})))-({Csat}*{Vth}*(arctan(sinh(x/{Vth}))))
Rs N001 1 {Rs}
Ls N001 N002 {Ls}
Rp N002 2 {Rp}
RGND1 0 N002 1e12
RGND2 2 0 1e12
.backanno
.ends
*******
.subckt 0402X7R_100pF_885012205055 1 2 
.param
+ C0=1.000000000000E-10
+ Csat=1.000000000000E-10
+ Vth=1.000000000000E+00
+ Rs=8.182600000000E-01
+ Cs=1.000000000000E-10
+ Ls=2.742800000000E-10
+ Rp=1.000000000000E+10
Cs N002 2 Q=(x*{Csat})+({C0}*{Vth}*arctan(sinh(x/{Vth})))-({Csat}*{Vth}*(arctan(sinh(x/{Vth}))))
Rs N001 1 {Rs}
Ls N001 N002 {Ls}
Rp N002 2 {Rp}
RGND1 0 N002 1e12
RGND2 2 0 1e12
.backanno
.ends
*******
.subckt 0402X7R_150pF_885012205056 1 2 
.param
+ C0=1.500000000000E-10
+ Csat=1.500000000000E-10
+ Vth=1.000000000000E+00
+ Rs=6.327114260360E-01
+ Cs=1.500000000000E-10
+ Ls=1.202807320000E-10
+ Rp=1.000000000000E+10
Cs N002 2 Q=(x*{Csat})+({C0}*{Vth}*arctan(sinh(x/{Vth})))-({Csat}*{Vth}*(arctan(sinh(x/{Vth}))))
Rs N001 1 {Rs}
Ls N001 N002 {Ls}
Rp N002 2 {Rp}
RGND1 0 N002 1e12
RGND2 2 0 1e12
.backanno
.ends
*******
.subckt 0402NP0_1pF_885012005049 1 2 
.param
+ Rs=3.724125661150E-01
+ Cs=1.000000000000E-12
+ Ls=3.424870640000E-10
+ Rp=1.000000000000E+10
Cs N002 2 {Cs}
Rs N001 1 {Rs}
Ls N001 N002 {Ls}
Rp N002 2 {Rp}
RGND1 0 N002 1e12
RGND2 2 0 1e12
.backanno
.ends
*******
.subckt 0402NP0_1-5pF_885012005050 1 2 
.param
+ Rs=2.627942965840E-01
+ Cs=1.500000000000E-12
+ Ls=3.577649170000E-10
+ Rp=1.000000000000E+10
Cs N002 2 {Cs}
Rs N001 1 {Rs}
Ls N001 N002 {Ls}
Rp N002 2 {Rp}
RGND1 0 N002 1e12
RGND2 2 0 1e12
.backanno
.ends
*******
.subckt 0402NP0_2-2pF_885012005051 1 2 
.param
+ Rs=3.731070515930E-01
+ Cs=2.200000000000E-12
+ Ls=3.529266510000E-10
+ Rp=1.000000000000E+10
Cs N002 2 {Cs}
Rs N001 1 {Rs}
Ls N001 N002 {Ls}
Rp N002 2 {Rp}
RGND1 0 N002 1e12
RGND2 2 0 1e12
.backanno
.ends
*******
.subckt 0402NP0_3-3pF_885012005052 1 2 
.param
+ Rs=3.715927145750E-01
+ Cs=3.300000000000E-12
+ Ls=3.855285790000E-10
+ Rp=1.000000000000E+10
Cs N002 2 {Cs}
Rs N001 1 {Rs}
Ls N001 N002 {Ls}
Rp N002 2 {Rp}
RGND1 0 N002 1e12
RGND2 2 0 1e12
.backanno
.ends
*******
.subckt 0402NP0_4-7pF_885012005053 1 2 
.param
+ Rs=4.436888128450E-01
+ Cs=4.700000000000E-12
+ Ls=4.554084820000E-10
+ Rp=1.000000000000E+10
Cs N002 2 {Cs}
Rs N001 1 {Rs}
Ls N001 N002 {Ls}
Rp N002 2 {Rp}
RGND1 0 N002 1e12
RGND2 2 0 1e12
.backanno
.ends
*******
.subckt 0402NP0_6-8pF_885012005054 1 2 
.param
+ Rs=3.977807366450E-01
+ Cs=6.800000000000E-12
+ Ls=4.187619450000E-10
+ Rp=1.000000000000E+10
Cs N002 2 {Cs}
Rs N001 1 {Rs}
Ls N001 N002 {Ls}
Rp N002 2 {Rp}
RGND1 0 N002 1e12
RGND2 2 0 1e12
.backanno
.ends
*******
.subckt 0402NP0_10pF_885012005055 1 2 
.param
+ Rs=3.679865001470E-01
+ Cs=1.000000000000E-11
+ Ls=4.545927820000E-10
+ Rp=1.000000000000E+10
Cs N002 2 {Cs}
Rs N001 1 {Rs}
Ls N001 N002 {Ls}
Rp N002 2 {Rp}
RGND1 0 N002 1e12
RGND2 2 0 1e12
.backanno
.ends
*******
.subckt 0402NP0_15pF_885012005056 1 2 
.param
+ Rs=2.890023770090E-01
+ Cs=1.500000000000E-11
+ Ls=4.355242410000E-10
+ Rp=1.000000000000E+10
Cs N002 2 {Cs}
Rs N001 1 {Rs}
Ls N001 N002 {Ls}
Rp N002 2 {Rp}
RGND1 0 N002 1e12
RGND2 2 0 1e12
.backanno
.ends
*******
.subckt 0402NP0_22pF_885012005057 1 2 
.param
+ Rs=1.946461244000E-01
+ Cs=2.200000000000E-11
+ Ls=4.437598440000E-10
+ Rp=1.000000000000E+10
Cs N002 2 {Cs}
Rs N001 1 {Rs}
Ls N001 N002 {Ls}
Rp N002 2 {Rp}
RGND1 0 N002 1e12
RGND2 2 0 1e12
.backanno
.ends
*******
.subckt 0402NP0_33pF_885012005058 1 2 
.param
+ Rs=1.251650630180E-01
+ Cs=3.300000000000E-11
+ Ls=4.114793080000E-10
+ Rp=1.000000000000E+10
Cs N002 2 {Cs}
Rs N001 1 {Rs}
Ls N001 N002 {Ls}
Rp N002 2 {Rp}
RGND1 0 N002 1e12
RGND2 2 0 1e12
.backanno
.ends
*******
.subckt 0402NP0_47pF_885012005059 1 2 
.param
+ Rs=1.364834622770E-01
+ Cs=4.700000000000E-11
+ Ls=4.443222850000E-10
+ Rp=1.000000000000E+10
Cs N002 2 {Cs}
Rs N001 1 {Rs}
Ls N001 N002 {Ls}
Rp N002 2 {Rp}
RGND1 0 N002 1e12
RGND2 2 0 1e12
.backanno
.ends
*******
.subckt 0402NP0_68pF_885012005060 1 2 
.param
+ Rs=1.014112147790E-01
+ Cs=6.800000000000E-11
+ Ls=4.247488860000E-10
+ Rp=1.000000000000E+10
Cs N002 2 {Cs}
Rs N001 1 {Rs}
Ls N001 N002 {Ls}
Rp N002 2 {Rp}
RGND1 0 N002 1e12
RGND2 2 0 1e12
.backanno
.ends
*******
.subckt 0402NP0_100pF_885012005061 1 2 
.param
+ Rs=7.080161904640E-02
+ Cs=1.000000000000E-10
+ Ls=3.726540220000E-10
+ Rp=1.000000000000E+10
Cs N002 2 {Cs}
Rs N001 1 {Rs}
Ls N001 N002 {Ls}
Rp N002 2 {Rp}
RGND1 0 N002 1e12
RGND2 2 0 1e12
.backanno
.ends
*******
.subckt 0402NP0_150pF_885012005062 1 2 
.param
+ Rs=4.355177051900E-02
+ Cs=1.500000000000E-10
+ Ls=3.721651470000E-10
+ Rp=1.000000000000E+10
Cs N002 2 {Cs}
Rs N001 1 {Rs}
Ls N001 N002 {Ls}
Rp N002 2 {Rp}
RGND1 0 N002 1e12
RGND2 2 0 1e12
.backanno
.ends
*******
.subckt 0402NP0_220pF_885012005063 1 2 
.param
+ Rs=3.286770756710E-02
+ Cs=2.200000000000E-10
+ Ls=3.556192320000E-10
+ Rp=1.000000000000E+10
Cs N002 2 {Cs}
Rs N001 1 {Rs}
Ls N001 N002 {Ls}
Rp N002 2 {Rp}
RGND1 0 N002 1e12
RGND2 2 0 1e12
.backanno
.ends
*******
.subckt 0603X7R_680pF_885012206082 1 2 
.param
+ C0=6.800000000000E-10
+ Csat=6.987236312703E-11
+ Vth=2.741132699931E+02
+ Rs=3.039929167850E-01
+ Cs=6.800000000000E-10
+ Ls=3.804252440000E-10
+ Rp=1.000000000000E+10
Cs N002 2 Q=(x*{Csat})+({C0}*{Vth}*arctan(sinh(x/{Vth})))-({Csat}*{Vth}*(arctan(sinh(x/{Vth}))))
Rs N001 1 {Rs}
Ls N001 N002 {Ls}
Rp N002 2 {Rp}
RGND1 0 N002 1e12
RGND2 2 0 1e12
.backanno
.ends
*******
.subckt 0603X7R_1-5nF_885012206084 1 2 
.param
+ C0=1.500000000000E-09
+ Csat=2.021786300631E-10
+ Vth=2.286398097526E+02
+ Rs=1.809994748520E-01
+ Cs=1.500000000000E-09
+ Ls=3.547735950000E-10
+ Rp=1.000000000000E+10
Cs N002 2 Q=(x*{Csat})+({C0}*{Vth}*arctan(sinh(x/{Vth})))-({Csat}*{Vth}*(arctan(sinh(x/{Vth}))))
Rs N001 1 {Rs}
Ls N001 N002 {Ls}
Rp N002 2 {Rp}
RGND1 0 N002 1e12
RGND2 2 0 1e12
.backanno
.ends
*******
.subckt 0603X7R_1nF_885012206083R 1 2 
.param
+ C0=1.000000000000E-09
+ Csat=1.381875884879E-10
+ Vth=1.982009855093E+02
+ Rs=2.578371844700E-01
+ Cs=1.000000000000E-09
+ Ls=4.104475000000E-10
+ Rp=1.000000000000E+10
Cs N002 2 Q=(x*{Csat})+({C0}*{Vth}*arctan(sinh(x/{Vth})))-({Csat}*{Vth}*(arctan(sinh(x/{Vth}))))
Rs N001 1 {Rs}
Ls N001 N002 {Ls}
Rp N002 2 {Rp}
RGND1 0 N002 1e12
RGND2 2 0 1e12
.backanno
.ends
*******
.subckt 0603X7R_1nF_885012206083 1 2 
.param
+ C0=1.000000000000E-09
+ Csat=1.003615666074E-10
+ Vth=2.025762153341E+02
+ Rs=2.578371844700E-01
+ Cs=1.000000000000E-09
+ Ls=4.104475000000E-10
+ Rp=1.000000000000E+10
Cs N002 2 Q=(x*{Csat})+({C0}*{Vth}*arctan(sinh(x/{Vth})))-({Csat}*{Vth}*(arctan(sinh(x/{Vth}))))
Rs N001 1 {Rs}
Ls N001 N002 {Ls}
Rp N002 2 {Rp}
RGND1 0 N002 1e12
RGND2 2 0 1e12
.backanno
.ends
*******
.subckt 0603X7R_4-7nF_885012206087 1 2 
.param
+ C0=4.700000000000E-09
+ Csat=4.771610070297E-10
+ Vth=1.966577736171E+02
+ Rs=8.216075814270E-02
+ Cs=4.700000000000E-09
+ Ls=2.839890110000E-10
+ Rp=1.000000000000E+10
Cs N002 2 Q=(x*{Csat})+({C0}*{Vth}*arctan(sinh(x/{Vth})))-({Csat}*{Vth}*(arctan(sinh(x/{Vth}))))
Rs N001 1 {Rs}
Ls N001 N002 {Ls}
Rp N002 2 {Rp}
RGND1 0 N002 1e12
RGND2 2 0 1e12
.backanno
.ends
*******
.subckt 0603X7R_3-3nF_885012206086 1 2 
.param
+ C0=3.300000000000E-09
+ Csat=3.300143044022E-10
+ Vth=1.718476052011E+02
+ Rs=1.057452252030E-01
+ Cs=3.300000000000E-09
+ Ls=3.394621160000E-10
+ Rp=1.000000000000E+10
Cs N002 2 Q=(x*{Csat})+({C0}*{Vth}*arctan(sinh(x/{Vth})))-({Csat}*{Vth}*(arctan(sinh(x/{Vth}))))
Rs N001 1 {Rs}
Ls N001 N002 {Ls}
Rp N002 2 {Rp}
RGND1 0 N002 1e12
RGND2 2 0 1e12
.backanno
.ends
*******
.subckt 0603X7R_2-2nF_885012206085 1 2 
.param
+ C0=2.200000000000E-09
+ Csat=2.629290087906E-10
+ Vth=1.282701900249E+02
+ Rs=1.394244042160E-01
+ Cs=2.200000000000E-09
+ Ls=3.275125310000E-10
+ Rp=1.000000000000E+10
Cs N002 2 Q=(x*{Csat})+({C0}*{Vth}*arctan(sinh(x/{Vth})))-({Csat}*{Vth}*(arctan(sinh(x/{Vth}))))
Rs N001 1 {Rs}
Ls N001 N002 {Ls}
Rp N002 2 {Rp}
RGND1 0 N002 1e12
RGND2 2 0 1e12
.backanno
.ends
*******
.subckt 0603X7R_6-8nF_885012206088 1 2 
.param
+ C0=6.800000000000E-09
+ Csat=6.801880417897E-10
+ Vth=5.907540433334E+01
+ Rs=8.386861058470E-02
+ Cs=6.800000000000E-09
+ Ls=4.164472220000E-10
+ Rp=1.000000000000E+10
Cs N002 2 Q=(x*{Csat})+({C0}*{Vth}*arctan(sinh(x/{Vth})))-({Csat}*{Vth}*(arctan(sinh(x/{Vth}))))
Rs N001 1 {Rs}
Ls N001 N002 {Ls}
Rp N002 2 {Rp}
RGND1 0 N002 1e12
RGND2 2 0 1e12
.backanno
.ends
*******
.subckt 0603X7R_15nF_885012206090 1 2 
.param
+ C0=1.500000000000E-08
+ Csat=1.500027461920E-09
+ Vth=5.316052877385E+01
+ Rs=4.850123680070E-02
+ Cs=1.500000000000E-08
+ Ls=3.325752550000E-10
+ Rp=1.000000000000E+10
Cs N002 2 Q=(x*{Csat})+({C0}*{Vth}*arctan(sinh(x/{Vth})))-({Csat}*{Vth}*(arctan(sinh(x/{Vth}))))
Rs N001 1 {Rs}
Ls N001 N002 {Ls}
Rp N002 2 {Rp}
RGND1 0 N002 1e12
RGND2 2 0 1e12
.backanno
.ends
*******
.subckt 0603X7R_10nF_885012206089R 1 2 
.param
+ C0=1.000000000000E-08
+ Csat=1.000006070001E-09
+ Vth=5.291990760420E+01
+ Rs=3.585328668790E-02
+ Cs=1.000000000000E-08
+ Ls=3.405954400000E-10
+ Rp=1.000000000000E+10
Cs N002 2 Q=(x*{Csat})+({C0}*{Vth}*arctan(sinh(x/{Vth})))-({Csat}*{Vth}*(arctan(sinh(x/{Vth}))))
Rs N001 1 {Rs}
Ls N001 N002 {Ls}
Rp N002 2 {Rp}
RGND1 0 N002 1e12
RGND2 2 0 1e12
.backanno
.ends
*******
.subckt 0603X7R_10nF_885012206089 1 2 
.param
+ C0=1.000000000000E-08
+ Csat=1.000003310630E-09
+ Vth=5.291992314941E+01
+ Rs=3.585328668790E-02
+ Cs=1.000000000000E-08
+ Ls=3.405954400000E-10
+ Rp=1.000000000000E+10
Cs N002 2 Q=(x*{Csat})+({C0}*{Vth}*arctan(sinh(x/{Vth})))-({Csat}*{Vth}*(arctan(sinh(x/{Vth}))))
Rs N001 1 {Rs}
Ls N001 N002 {Ls}
Rp N002 2 {Rp}
RGND1 0 N002 1e12
RGND2 2 0 1e12
.backanno
.ends
*******
.subckt 0603X7R_22nF_885012206091 1 2 
.param
+ C0=2.200000000000E-08
+ Csat=2.200087123520E-09
+ Vth=5.136122603622E+01
+ Rs=9.719717730840E-03
+ Cs=2.200000000000E-08
+ Ls=3.002252650000E-10
+ Rp=1.000000000000E+10
Cs N002 2 Q=(x*{Csat})+({C0}*{Vth}*arctan(sinh(x/{Vth})))-({Csat}*{Vth}*(arctan(sinh(x/{Vth}))))
Rs N001 1 {Rs}
Ls N001 N002 {Ls}
Rp N002 2 {Rp}
RGND1 0 N002 1e12
RGND2 2 0 1e12
.backanno
.ends
*******
.subckt 0603X7R_47nF_885012206093 1 2 
.param
+ C0=4.700000000000E-08
+ Csat=4.700000160491E-09
+ Vth=3.384729677281E+01
+ Rs=2.723000000000E-02
+ Cs=4.700000000000E-08
+ Ls=2.789100000000E-10
+ Rp=1.000000000000E+10
Cs N002 2 Q=(x*{Csat})+({C0}*{Vth}*arctan(sinh(x/{Vth})))-({Csat}*{Vth}*(arctan(sinh(x/{Vth}))))
Rs N001 1 {Rs}
Ls N001 N002 {Ls}
Rp N002 2 {Rp}
RGND1 0 N002 1e12
RGND2 2 0 1e12
.backanno
.ends
*******
.subckt 0603X7R_33nF_885012206092 1 2 
.param
+ C0=3.300000000000E-08
+ Csat=3.300000000128E-09
+ Vth=3.466497560991E+01
+ Rs=2.322000000000E-02
+ Cs=3.300000000000E-08
+ Ls=3.007100000000E-10
+ Rp=1.000000000000E+10
Cs N002 2 Q=(x*{Csat})+({C0}*{Vth}*arctan(sinh(x/{Vth})))-({Csat}*{Vth}*(arctan(sinh(x/{Vth}))))
Rs N001 1 {Rs}
Ls N001 N002 {Ls}
Rp N002 2 {Rp}
RGND1 0 N002 1e12
RGND2 2 0 1e12
.backanno
.ends
*******
.subckt 0603X7R_100nF_885012206095 1 2 
.param
+ C0=1.000000000000E-07
+ Csat=1.000000166307E-08
+ Vth=2.865762822073E+01
+ Rs=1.576591528810E-02
+ Cs=1.000000000000E-07
+ Ls=3.101719660000E-10
+ Rp=5.000000000000E+09
Cs N002 2 Q=(x*{Csat})+({C0}*{Vth}*arctan(sinh(x/{Vth})))-({Csat}*{Vth}*(arctan(sinh(x/{Vth}))))
Rs N001 1 {Rs}
Ls N001 N002 {Ls}
Rp N002 2 {Rp}
RGND1 0 N002 1e12
RGND2 2 0 1e12
.backanno
.ends
*******
.subckt 0603X7R_100nF_885012206095R 1 2 
.param
+ C0=1.000000000000E-07
+ Csat=1.000000032602E-08
+ Vth=2.865762934913E+01
+ Rs=1.576591528810E-02
+ Cs=1.000000000000E-07
+ Ls=3.101719660000E-10
+ Rp=5.000000000000E+09
Cs N002 2 Q=(x*{Csat})+({C0}*{Vth}*arctan(sinh(x/{Vth})))-({Csat}*{Vth}*(arctan(sinh(x/{Vth}))))
Rs N001 1 {Rs}
Ls N001 N002 {Ls}
Rp N002 2 {Rp}
RGND1 0 N002 1e12
RGND2 2 0 1e12
.backanno
.ends
*******
.subckt 0603X7R_68nF_885012206094 1 2 
.param
+ C0=6.800000000000E-08
+ Csat=6.800000268557E-09
+ Vth=2.858786191127E+01
+ Rs=1.852000000000E-02
+ Cs=6.800000000000E-08
+ Ls=2.360900000000E-10
+ Rp=7.400000000000E+09
Cs N002 2 Q=(x*{Csat})+({C0}*{Vth}*arctan(sinh(x/{Vth})))-({Csat}*{Vth}*(arctan(sinh(x/{Vth}))))
Rs N001 1 {Rs}
Ls N001 N002 {Ls}
Rp N002 2 {Rp}
RGND1 0 N002 1e12
RGND2 2 0 1e12
.backanno
.ends
*******
.subckt 0603X7R_100pF_885012206077 1 2 
.param
+ C0=1.000000000000E-10
+ Csat=1.000000000000E-10
+ Vth=1.000000000000E+00
+ Rs=8.599600000000E-01
+ Cs=1.000000000000E-10
+ Ls=2.309900000000E-10
+ Rp=1.000000000000E+10
Cs N002 2 Q=(x*{Csat})+({C0}*{Vth}*arctan(sinh(x/{Vth})))-({Csat}*{Vth}*(arctan(sinh(x/{Vth}))))
Rs N001 1 {Rs}
Ls N001 N002 {Ls}
Rp N002 2 {Rp}
RGND1 0 N002 1e12
RGND2 2 0 1e12
.backanno
.ends
*******
.subckt 0603X7R_150pF_885012206078 1 2 
.param
+ C0=1.500000000000E-10
+ Csat=1.500000000000E-10
+ Vth=1.000000000000E+00
+ Rs=6.711000000000E-01
+ Cs=1.500000000000E-10
+ Ls=2.805900000000E-10
+ Rp=1.000000000000E+10
Cs N002 2 Q=(x*{Csat})+({C0}*{Vth}*arctan(sinh(x/{Vth})))-({Csat}*{Vth}*(arctan(sinh(x/{Vth}))))
Rs N001 1 {Rs}
Ls N001 N002 {Ls}
Rp N002 2 {Rp}
RGND1 0 N002 1e12
RGND2 2 0 1e12
.backanno
.ends
*******
.subckt 0603X7R_220pF_885012206079 1 2 
.param
+ C0=2.200000000000E-10
+ Csat=2.200000000000E-10
+ Vth=1.000000000000E+00
+ Rs=5.820800000000E-01
+ Cs=2.200000000000E-10
+ Ls=3.016400000000E-10
+ Rp=1.000000000000E+10
Cs N002 2 Q=(x*{Csat})+({C0}*{Vth}*arctan(sinh(x/{Vth})))-({Csat}*{Vth}*(arctan(sinh(x/{Vth}))))
Rs N001 1 {Rs}
Ls N001 N002 {Ls}
Rp N002 2 {Rp}
RGND1 0 N002 1e12
RGND2 2 0 1e12
.backanno
.ends
*******
.subckt 0603X7R_330pF_885012206080 1 2 
.param
+ C0=3.300000000000E-10
+ Csat=3.300000000000E-10
+ Vth=1.000000000000E+00
+ Rs=4.347300000000E-01
+ Cs=3.300000000000E-10
+ Ls=3.208400000000E-10
+ Rp=1.000000000000E+10
Cs N002 2 Q=(x*{Csat})+({C0}*{Vth}*arctan(sinh(x/{Vth})))-({Csat}*{Vth}*(arctan(sinh(x/{Vth}))))
Rs N001 1 {Rs}
Ls N001 N002 {Ls}
Rp N002 2 {Rp}
RGND1 0 N002 1e12
RGND2 2 0 1e12
.backanno
.ends
*******
.subckt 0603X7R_470pF_885012206081 1 2 
.param
+ C0=4.700000000000E-10
+ Csat=4.700000000000E-10
+ Vth=1.000000000000E+00
+ Rs=3.461900000000E-01
+ Cs=4.700000000000E-10
+ Ls=3.273800000000E-10
+ Rp=1.000000000000E+10
Cs N002 2 Q=(x*{Csat})+({C0}*{Vth}*arctan(sinh(x/{Vth})))-({Csat}*{Vth}*(arctan(sinh(x/{Vth}))))
Rs N001 1 {Rs}
Ls N001 N002 {Ls}
Rp N002 2 {Rp}
RGND1 0 N002 1e12
RGND2 2 0 1e12
.backanno
.ends
*******
.subckt 0603NP0_3-3pF_885012006048 1 2 
.param
+ Rs=3.517778028180E-01
+ Cs=3.300000000000E-12
+ Ls=4.935216890000E-10
+ Rp=1.000000000000E+10
Cs N002 2 {Cs}
Rs N001 1 {Rs}
Ls N001 N002 {Ls}
Rp N002 2 {Rp}
RGND1 0 N002 1e12
RGND2 2 0 1e12
.backanno
.ends
*******
.subckt 0603NP0_4-7pF_885012006049 1 2 
.param
+ Rs=3.149518095810E-01
+ Cs=4.700000000000E-12
+ Ls=4.342138990000E-10
+ Rp=1.000000000000E+10
Cs N002 2 {Cs}
Rs N001 1 {Rs}
Ls N001 N002 {Ls}
Rp N002 2 {Rp}
RGND1 0 N002 1e12
RGND2 2 0 1e12
.backanno
.ends
*******
.subckt 0603NP0_6-8pF_885012006050 1 2 
.param
+ Rs=3.184093060340E-01
+ Cs=6.800000000000E-12
+ Ls=5.320755150000E-10
+ Rp=1.000000000000E+10
Cs N002 2 {Cs}
Rs N001 1 {Rs}
Ls N001 N002 {Ls}
Rp N002 2 {Rp}
RGND1 0 N002 1e12
RGND2 2 0 1e12
.backanno
.ends
*******
.subckt 0603NP0_10pF_885012006051 1 2 
.param
+ Rs=4.235688445470E-01
+ Cs=1.000000000000E-11
+ Ls=6.086994240000E-10
+ Rp=1.000000000000E+10
Cs N002 2 {Cs}
Rs N001 1 {Rs}
Ls N001 N002 {Ls}
Rp N002 2 {Rp}
RGND1 0 N002 1e12
RGND2 2 0 1e12
.backanno
.ends
*******
.subckt 0603NP0_15pF_885012006052 1 2 
.param
+ Rs=3.960407495850E-01
+ Cs=1.500000000000E-11
+ Ls=6.082987110000E-10
+ Rp=1.000000000000E+10
Cs N002 2 {Cs}
Rs N001 1 {Rs}
Ls N001 N002 {Ls}
Rp N002 2 {Rp}
RGND1 0 N002 1e12
RGND2 2 0 1e12
.backanno
.ends
*******
.subckt 0603NP0_22pF_885012006095 1 2 
.param
+ Rs=2.200000000000E-02
+ Cs=1.000000000000E-07
+ Ls=1.100000000000E-09
+ Rp=1.000000000000E+10
Cs N002 2 {Cs}
Rs N001 1 {Rs}
Ls N001 N002 {Ls}
Rp N002 2 {Rp}
RGND1 0 N002 1e12
RGND2 2 0 1e12
.backanno
.ends
*******
.subckt 0603NP0_22pF_885012006053 1 2 
.param
+ Rs=3.887448237650E-01
+ Cs=2.200000000000E-11
+ Ls=6.958801700000E-10
+ Rp=1.000000000000E+10
Cs N002 2 {Cs}
Rs N001 1 {Rs}
Ls N001 N002 {Ls}
Rp N002 2 {Rp}
RGND1 0 N002 1e12
RGND2 2 0 1e12
.backanno
.ends
*******
.subckt 0603NP0_33pF_885012006054 1 2 
.param
+ Rs=3.211931982350E-01
+ Cs=3.300000000000E-11
+ Ls=7.316895170000E-10
+ Rp=1.000000000000E+10
Cs N002 2 {Cs}
Rs N001 1 {Rs}
Ls N001 N002 {Ls}
Rp N002 2 {Rp}
RGND1 0 N002 1e12
RGND2 2 0 1e12
.backanno
.ends
*******
.subckt 0603NP0_47pF_885012006055 1 2 
.param
+ Rs=2.909350112580E-01
+ Cs=4.700000000000E-11
+ Ls=4.026989870000E-10
+ Rp=1.000000000000E+10
Cs N002 2 {Cs}
Rs N001 1 {Rs}
Ls N001 N002 {Ls}
Rp N002 2 {Rp}
RGND1 0 N002 1e12
RGND2 2 0 1e12
.backanno
.ends
*******
.subckt 0603NP0_68pF_885012006056 1 2 
.param
+ Rs=1.901993122390E-01
+ Cs=6.800000000000E-11
+ Ls=6.751119850000E-10
+ Rp=1.000000000000E+10
Cs N002 2 {Cs}
Rs N001 1 {Rs}
Ls N001 N002 {Ls}
Rp N002 2 {Rp}
RGND1 0 N002 1e12
RGND2 2 0 1e12
.backanno
.ends
*******
.subckt 0603NP0_100pF_885012006057 1 2 
.param
+ Rs=1.556260398740E-01
+ Cs=1.000000000000E-10
+ Ls=4.375796610000E-10
+ Rp=1.000000000000E+10
Cs N002 2 {Cs}
Rs N001 1 {Rs}
Ls N001 N002 {Ls}
Rp N002 2 {Rp}
RGND1 0 N002 1e12
RGND2 2 0 1e12
.backanno
.ends
*******
.subckt 0603NP0_150pF_885012006096 1 2 
.param
+ Rs=1.190000000000E-01
+ Cs=1.500000000000E-10
+ Ls=1.180000000000E-09
+ Rp=1.000000000000E+10
Cs N002 2 {Cs}
Rs N001 1 {Rs}
Ls N001 N002 {Ls}
Rp N002 2 {Rp}
RGND1 0 N002 1e12
RGND2 2 0 1e12
.backanno
.ends
*******
.subckt 0603NP0_150pF_885012006058 1 2 
.param
+ Rs=1.171710821060E-01
+ Cs=1.500000000000E-10
+ Ls=5.869503620000E-10
+ Rp=1.000000000000E+10
Cs N002 2 {Cs}
Rs N001 1 {Rs}
Ls N001 N002 {Ls}
Rp N002 2 {Rp}
RGND1 0 N002 1e12
RGND2 2 0 1e12
.backanno
.ends
*******
.subckt 0603NP0_220pF_885012006059 1 2 
.param
+ Rs=1.206739495990E-01
+ Cs=2.200000000000E-10
+ Ls=6.111712160000E-10
+ Rp=1.000000000000E+10
Cs N002 2 {Cs}
Rs N001 1 {Rs}
Ls N001 N002 {Ls}
Rp N002 2 {Rp}
RGND1 0 N002 1e12
RGND2 2 0 1e12
.backanno
.ends
*******
.subckt 0603NP0_330pF_885012006060 1 2 
.param
+ Rs=9.844999500010E-02
+ Cs=3.300000000000E-10
+ Ls=5.750397750000E-10
+ Rp=1.000000000000E+10
Cs N002 2 {Cs}
Rs N001 1 {Rs}
Ls N001 N002 {Ls}
Rp N002 2 {Rp}
RGND1 0 N002 1e12
RGND2 2 0 1e12
.backanno
.ends
*******
.subckt 0603NP0_470pF_885012006061 1 2 
.param
+ Rs=7.016654200810E-02
+ Cs=4.700000000000E-10
+ Ls=5.552797270000E-10
+ Rp=1.000000000000E+10
Cs N002 2 {Cs}
Rs N001 1 {Rs}
Ls N001 N002 {Ls}
Rp N002 2 {Rp}
RGND1 0 N002 1e12
RGND2 2 0 1e12
.backanno
.ends
*******
.subckt 0603NP0_680pF_885012006062 1 2 
.param
+ Rs=5.878057640400E-02
+ Cs=6.800000000000E-10
+ Ls=5.071203060000E-10
+ Rp=1.000000000000E+10
Cs N002 2 {Cs}
Rs N001 1 {Rs}
Ls N001 N002 {Ls}
Rp N002 2 {Rp}
RGND1 0 N002 1e12
RGND2 2 0 1e12
.backanno
.ends
*******
.subckt 0603NP0_1nF_885012006097 1 2 
.param
+ Rs=5.396893923430E-02
+ Cs=1.000000000000E-09
+ Ls=1.060354109000E-09
+ Rp=1.000000000000E+10
Cs N002 2 {Cs}
Rs N001 1 {Rs}
Ls N001 N002 {Ls}
Rp N002 2 {Rp}
RGND1 0 N002 1e12
RGND2 2 0 1e12
.backanno
.ends
*******
.subckt 0603NP0_1nF_885012006063 1 2 
.param
+ Rs=4.031744902500E-02
+ Cs=1.000000000000E-09
+ Ls=4.454187180000E-10
+ Rp=1.000000000000E+10
Cs N002 2 {Cs}
Rs N001 1 {Rs}
Ls N001 N002 {Ls}
Rp N002 2 {Rp}
RGND1 0 N002 1e12
RGND2 2 0 1e12
.backanno
.ends
*******
.subckt 0805X7R_3-3nF_885012207089 1 2 
.param
+ C0=3.300000000000E-09
+ Csat=3.301279691218E-10
+ Vth=6.537756496503E+02
+ Rs=8.492000000000E-02
+ Cs=3.300000000000E-09
+ Ls=3.695000000000E-10
+ Rp=1.000000000000E+10
Cs N002 2 Q=(x*{Csat})+({C0}*{Vth}*arctan(sinh(x/{Vth})))-({Csat}*{Vth}*(arctan(sinh(x/{Vth}))))
Rs N001 1 {Rs}
Ls N001 N002 {Ls}
Rp N002 2 {Rp}
RGND1 0 N002 1e12
RGND2 2 0 1e12
.backanno
.ends
*******
.subckt 0805X7R_680pF_885012207085 1 2 
.param
+ C0=6.800000000000E-10
+ Csat=6.827131323471E-11
+ Vth=2.823317701144E+02
+ Rs=2.419100000000E-01
+ Cs=6.800000000000E-10
+ Ls=3.576300000000E-10
+ Rp=1.000000000000E+10
Cs N002 2 Q=(x*{Csat})+({C0}*{Vth}*arctan(sinh(x/{Vth})))-({Csat}*{Vth}*(arctan(sinh(x/{Vth}))))
Rs N001 1 {Rs}
Ls N001 N002 {Ls}
Rp N002 2 {Rp}
RGND1 0 N002 1e12
RGND2 2 0 1e12
.backanno
.ends
*******
.subckt 0805X7R_4-7nF_885012207090 1 2 
.param
+ C0=4.700000000000E-09
+ Csat=2.699701979103E-09
+ Vth=1.707973308590E+02
+ Rs=5.225000000000E-02
+ Cs=4.700000000000E-09
+ Ls=2.507600000000E-10
+ Rp=1.000000000000E+10
Cs N002 2 Q=(x*{Csat})+({C0}*{Vth}*arctan(sinh(x/{Vth})))-({Csat}*{Vth}*(arctan(sinh(x/{Vth}))))
Rs N001 1 {Rs}
Ls N001 N002 {Ls}
Rp N002 2 {Rp}
RGND1 0 N002 1e12
RGND2 2 0 1e12
.backanno
.ends
*******
.subckt 0805X7R_2-2nF_885012207088 1 2 
.param
+ C0=2.200000000000E-09
+ Csat=2.210136336787E-10
+ Vth=1.814528392494E+02
+ Rs=1.117900000000E-01
+ Cs=2.200000000000E-09
+ Ls=3.806700000000E-10
+ Rp=1.000000000000E+10
Cs N002 2 Q=(x*{Csat})+({C0}*{Vth}*arctan(sinh(x/{Vth})))-({Csat}*{Vth}*(arctan(sinh(x/{Vth}))))
Rs N001 1 {Rs}
Ls N001 N002 {Ls}
Rp N002 2 {Rp}
RGND1 0 N002 1e12
RGND2 2 0 1e12
.backanno
.ends
*******
.subckt 0805X7R_1-5nF_885012207087 1 2 
.param
+ C0=1.500000000000E-09
+ Csat=1.506582383184E-10
+ Vth=1.800983590806E+02
+ Rs=1.469600000000E-01
+ Cs=1.500000000000E-09
+ Ls=4.008400000000E-10
+ Rp=1.000000000000E+10
Cs N002 2 Q=(x*{Csat})+({C0}*{Vth}*arctan(sinh(x/{Vth})))-({Csat}*{Vth}*(arctan(sinh(x/{Vth}))))
Rs N001 1 {Rs}
Ls N001 N002 {Ls}
Rp N002 2 {Rp}
RGND1 0 N002 1e12
RGND2 2 0 1e12
.backanno
.ends
*******
.subckt 0805X7R_15nF_885012207093 1 2 
.param
+ C0=1.500000000000E-08
+ Csat=1.500035825276E-09
+ Vth=5.335283885326E+01
+ Rs=4.594000000000E-02
+ Cs=1.500000000000E-08
+ Ls=3.121600000000E-10
+ Rp=1.000000000000E+10
Cs N002 2 Q=(x*{Csat})+({C0}*{Vth}*arctan(sinh(x/{Vth})))-({Csat}*{Vth}*(arctan(sinh(x/{Vth}))))
Rs N001 1 {Rs}
Ls N001 N002 {Ls}
Rp N002 2 {Rp}
RGND1 0 N002 1e12
RGND2 2 0 1e12
.backanno
.ends
*******
.subckt 0805X7R_10nF_885012207092 1 2 
.param
+ C0=1.000000000000E-08
+ Csat=1.000008249680E-09
+ Vth=5.630125487566E+01
+ Rs=6.275000000000E-02
+ Cs=1.000000000000E-08
+ Ls=3.102400000000E-10
+ Rp=1.000000000000E+10
Cs N002 2 Q=(x*{Csat})+({C0}*{Vth}*arctan(sinh(x/{Vth})))-({Csat}*{Vth}*(arctan(sinh(x/{Vth}))))
Rs N001 1 {Rs}
Ls N001 N002 {Ls}
Rp N002 2 {Rp}
RGND1 0 N002 1e12
RGND2 2 0 1e12
.backanno
.ends
*******
.subckt 0805X7R_6-8nF_885012207091 1 2 
.param
+ C0=6.800000000000E-09
+ Csat=6.800045007059E-10
+ Vth=6.328507010725E+01
+ Rs=6.481000000000E-02
+ Cs=6.800000000000E-09
+ Ls=3.449500000000E-10
+ Rp=1.000000000000E+10
Cs N002 2 Q=(x*{Csat})+({C0}*{Vth}*arctan(sinh(x/{Vth})))-({Csat}*{Vth}*(arctan(sinh(x/{Vth}))))
Rs N001 1 {Rs}
Ls N001 N002 {Ls}
Rp N002 2 {Rp}
RGND1 0 N002 1e12
RGND2 2 0 1e12
.backanno
.ends
*******
.subckt 0805X7R_22nF_885012207094 1 2 
.param
+ C0=2.200000000000E-08
+ Csat=2.200030833495E-09
+ Vth=5.540882381992E+01
+ Rs=4.966000000000E-02
+ Cs=2.200000000000E-08
+ Ls=3.195600000000E-10
+ Rp=1.000000000000E+10
Cs N002 2 Q=(x*{Csat})+({C0}*{Vth}*arctan(sinh(x/{Vth})))-({Csat}*{Vth}*(arctan(sinh(x/{Vth}))))
Rs N001 1 {Rs}
Ls N001 N002 {Ls}
Rp N002 2 {Rp}
RGND1 0 N002 1e12
RGND2 2 0 1e12
.backanno
.ends
*******
.subckt 0805X7R_47nF_885012207096 1 2 
.param
+ C0=4.700000000000E-08
+ Csat=4.700041513542E-09
+ Vth=5.281342832848E+01
+ Rs=2.567488273030E-02
+ Cs=4.700000000000E-08
+ Ls=3.800000000000E-10
+ Rp=1.000000000000E+10
Cs N002 2 Q=(x*{Csat})+({C0}*{Vth}*arctan(sinh(x/{Vth})))-({Csat}*{Vth}*(arctan(sinh(x/{Vth}))))
Rs N001 1 {Rs}
Ls N001 N002 {Ls}
Rp N002 2 {Rp}
RGND1 0 N002 1e12
RGND2 2 0 1e12
.backanno
.ends
*******
.subckt 0805X7R_33nF_885012207095 1 2 
.param
+ C0=3.300000000000E-08
+ Csat=3.300658114874E-09
+ Vth=5.545770563976E+01
+ Rs=3.445497985170E-02
+ Cs=3.300000000000E-08
+ Ls=4.300000000000E-10
+ Rp=1.000000000000E+10
Cs N002 2 Q=(x*{Csat})+({C0}*{Vth}*arctan(sinh(x/{Vth})))-({Csat}*{Vth}*(arctan(sinh(x/{Vth}))))
Rs N001 1 {Rs}
Ls N001 N002 {Ls}
Rp N002 2 {Rp}
RGND1 0 N002 1e12
RGND2 2 0 1e12
.backanno
.ends
*******
.subckt 0805X7R_150nF_885012207099 1 2 
.param
+ C0=1.500000000000E-07
+ Csat=1.500000000000E-08
+ Vth=3.960276778777E+01
+ Rs=1.424473627470E-02
+ Cs=1.500000000000E-07
+ Ls=4.500000000000E-10