**************************************************
* Manufacturer:          Würth Elektronik
* Kinds:                 MLCCs Capacitors
* Matchcode:             WCAP-CSGP 100V DC bias
* Library Type:          LTspice
* Version:               rev22c
* Created/modified by:   Richard
* Date and Time:         2022/10/14
* Team:                  eiSos EDA Service  
* Contact:               libraries@we-online.com
**************************************************
* Copyright(C) 2022 Würth Elektronik eiSos GmbH & Co. KG
* All Rights Reserved.
**************************************************
* Disclaimer: While Würth Elektronik eiSos has made every reasonable effort to ensure the accuracy
* of the simulation models provided, Würth Elektronik eiSos does not guarantee the exemption of error on
* the simulation models, nor does Würth Elektronik eiSos guarantee that the simulation model is current.
* Würth Elektronik eiSos reserves the right to make any adjustments at any time without notice.
* Würth Elektronik eiSos expressly disclaims all implied warranties regarding this simulation model.
**************************************************
.subckt 0402X7R_1nF_885012205080 1 2 
.param
+ C0=1.000000000000E-09
+ Csat=1.000036476262E-10
+ Vth=1.062439553355E+02
+ Rs=2.500000000000E-01
+ Cs=1.000000000000E-09
+ Ls=4.400000000000E-10
+ Rp=1.000000000000E+10
Cs N002 2 Q=(x*{Csat})+({C0}*{Vth}*arctan(sinh(x/{Vth})))-({Csat}*{Vth}*(arctan(sinh(x/{Vth}))))
Rs N001 1 {Rs}
Ls N001 N002 {Ls}
Rp N002 2 {Rp}
RGND1 0 N002 1e12
RGND2 2 0 1e12
.backanno
.ends
*******
.subckt 0402X7R_4-7nF_885012205084 1 2 
.param
+ C0=4.700000000000E-09
+ Csat=4.700000944322E-10
+ Vth=4.624882475965E+01
+ Rs=1.550000000000E-01
+ Cs=4.700000000000E-09
+ Ls=4.000000000000E-10
+ Rp=1.000000000000E+10
Cs N002 2 Q=(x*{Csat})+({C0}*{Vth}*arctan(sinh(x/{Vth})))-({Csat}*{Vth}*(arctan(sinh(x/{Vth}))))
Rs N001 1 {Rs}
Ls N001 N002 {Ls}
Rp N002 2 {Rp}
RGND1 0 N002 1e12
RGND2 2 0 1e12
.backanno
.ends
*******
.subckt 0402NP0_8-2pF_885012005085 1 2 
.param
+ Rs=3.525985518950E-01
+ Cs=8.200000000000E-12
+ Ls=4.168690390000E-10
+ Rp=1.000000000000E+10
Cs N002 2 {Cs}
Rs N001 1 {Rs}
Ls N001 N002 {Ls}
Rp N002 2 {Rp}
RGND1 0 N002 1e12
RGND2 2 0 1e12
.backanno
.ends
*******
.subckt 0402NP0_10pF_885012005074 1 2 
.param
+ Rs=4.216514634770E-01
+ Cs=1.000000000000E-11
+ Ls=4.147907830000E-10
+ Rp=1.000000000000E+10
Cs N002 2 {Cs}
Rs N001 1 {Rs}
Ls N001 N002 {Ls}
Rp N002 2 {Rp}
RGND1 0 N002 1e12
RGND2 2 0 1e12
.backanno
.ends
*******
.subckt 0402NP0_33pF_885012005077 1 2 
.param
+ Rs=2.216049823140E-01
+ Cs=3.300000000000E-11
+ Ls=3.490222040000E-10
+ Rp=1.000000000000E+10
Cs N002 2 {Cs}
Rs N001 1 {Rs}
Ls N001 N002 {Ls}
Rp N002 2 {Rp}
RGND1 0 N002 1e12
RGND2 2 0 1e12
.backanno
.ends
*******
.subckt 0402NP0_47pF_885012005078 1 2 
.param
+ Rs=2.421052691500E-01
+ Cs=4.700000000000E-11
+ Ls=4.455796580000E-10
+ Rp=1.000000000000E+10
Cs N002 2 {Cs}
Rs N001 1 {Rs}
Ls N001 N002 {Ls}
Rp N002 2 {Rp}
RGND1 0 N002 1e12
RGND2 2 0 1e12
.backanno
.ends
*******
.subckt 0402NP0_68pF_885012005079 1 2 
.param
+ Rs=2.042121779620E-01
+ Cs=6.800000000000E-11
+ Ls=3.701697130000E-10
+ Rp=1.000000000000E+10
Cs N002 2 {Cs}
Rs N001 1 {Rs}
Ls N001 N002 {Ls}
Rp N002 2 {Rp}
RGND1 0 N002 1e12
RGND2 2 0 1e12
.backanno
.ends
*******
.subckt 0402NP0_100pF_885012005080 1 2 
.param
+ Rs=1.175539525750E-01
+ Cs=1.000000000000E-10
+ Ls=3.966673380000E-10
+ Rp=1.000000000000E+10
Cs N002 2 {Cs}
Rs N001 1 {Rs}
Ls N001 N002 {Ls}
Rp N002 2 {Rp}
RGND1 0 N002 1e12
RGND2 2 0 1e12
.backanno
.ends
*******
.subckt 0603X7R_150pF_885012206103 1 2 
.param
+ C0=1.500000000000E-10
+ Csat=3.123373435040E-11
+ Vth=5.061137314679E+02
+ Rs=6.633075877640E-01
+ Cs=1.500000000000E-10
+ Ls=4.016393050000E-10
+ Rp=1.000000000000E+10
Cs N002 2 Q=(x*{Csat})+({C0}*{Vth}*arctan(sinh(x/{Vth})))-({Csat}*{Vth}*(arctan(sinh(x/{Vth}))))
Rs N001 1 {Rs}
Ls N001 N002 {Ls}
Rp N002 2 {Rp}
RGND1 0 N002 1e12
RGND2 2 0 1e12
.backanno
.ends
*******
.subckt 0603X7R_330pF_885012206105 1 2 
.param
+ C0=3.300000000000E-10
+ Csat=3.326705130087E-11
+ Vth=2.843121660085E+02
+ Rs=4.718818441860E-01
+ Cs=3.300000000000E-10
+ Ls=4.171743120000E-10
+ Rp=1.000000000000E+10
Cs N002 2 Q=(x*{Csat})+({C0}*{Vth}*arctan(sinh(x/{Vth})))-({Csat}*{Vth}*(arctan(sinh(x/{Vth}))))
Rs N001 1 {Rs}
Ls N001 N002 {Ls}
Rp N002 2 {Rp}
RGND1 0 N002 1e12
RGND2 2 0 1e12
.backanno
.ends
*******
.subckt 0603X7R_470pF_885012206106 1 2 
.param
+ C0=4.700000000000E-10
+ Csat=4.700000014867E-11
+ Vth=2.559608218344E+02
+ Rs=3.000000000000E-01
+ Cs=4.700000000000E-10
+ Ls=4.010000000000E-10
+ Rp=1.000000000000E+10
Cs N002 2 Q=(x*{Csat})+({C0}*{Vth}*arctan(sinh(x/{Vth})))-({Csat}*{Vth}*(arctan(sinh(x/{Vth}))))
Rs N001 1 {Rs}
Ls N001 N002 {Ls}
Rp N002 2 {Rp}
RGND1 0 N002 1e12
RGND2 2 0 1e12
.backanno
.ends
*******
.subckt 0603X7R_1nF_885012206108 1 2 
.param
+ C0=1.000000000000E-09
+ Csat=1.000001149620E-10
+ Vth=9.021021268877E+01
+ Rs=2.020245146370E-01
+ Cs=1.000000000000E-09
+ Ls=5.146981900000E-10
+ Rp=1.000000000000E+10
Cs N002 2 Q=(x*{Csat})+({C0}*{Vth}*arctan(sinh(x/{Vth})))-({Csat}*{Vth}*(arctan(sinh(x/{Vth}))))
Rs N001 1 {Rs}
Ls N001 N002 {Ls}
Rp N002 2 {Rp}
RGND1 0 N002 1e12
RGND2 2 0 1e12
.backanno
.ends
*******
.subckt 0603X7R_1-5nF_885012206109 1 2 
.param
+ C0=1.500000000000E-09
+ Csat=1.500001207978E-10
+ Vth=8.649368645718E+01
+ Rs=1.609078735860E-01
+ Cs=1.500000000000E-09
+ Ls=4.365949940000E-10
+ Rp=1.000000000000E+10
Cs N002 2 Q=(x*{Csat})+({C0}*{Vth}*arctan(sinh(x/{Vth})))-({Csat}*{Vth}*(arctan(sinh(x/{Vth}))))
Rs N001 1 {Rs}
Ls N001 N002 {Ls}
Rp N002 2 {Rp}
RGND1 0 N002 1e12
RGND2 2 0 1e12
.backanno
.ends
*******
.subckt 0603X7R_680pF_885012206107 1 2 
.param
+ C0=6.800000000000E-10
+ Csat=6.800013526740E-11
+ Vth=9.689783400142E+01
+ Rs=3.076944537070E-01
+ Cs=6.800000000000E-10
+ Ls=4.681262230000E-10
+ Rp=1.000000000000E+10
Cs N002 2 Q=(x*{Csat})+({C0}*{Vth}*arctan(sinh(x/{Vth})))-({Csat}*{Vth}*(arctan(sinh(x/{Vth}))))
Rs N001 1 {Rs}
Ls N001 N002 {Ls}
Rp N002 2 {Rp}
RGND1 0 N002 1e12
RGND2 2 0 1e12
.backanno
.ends
*******
.subckt 0603X7R_3-3nF_885012206111 1 2 
.param
+ C0=3.300000000000E-09
+ Csat=3.300058273350E-10
+ Vth=6.281522852030E+01
+ Rs=1.413903401520E-01
+ Cs=3.300000000000E-09
+ Ls=5.694467620000E-10
+ Rp=1.000000000000E+10
Cs N002 2 Q=(x*{Csat})+({C0}*{Vth}*arctan(sinh(x/{Vth})))-({Csat}*{Vth}*(arctan(sinh(x/{Vth}))))
Rs N001 1 {Rs}
Ls N001 N002 {Ls}
Rp N002 2 {Rp}
RGND1 0 N002 1e12
RGND2 2 0 1e12
.backanno
.ends
*******
.subckt 0603X7R_4-7nF_885012206112 1 2 
.param
+ C0=4.700000000000E-09
+ Csat=5.149212859984E-10
+ Vth=5.897612408306E+01
+ Rs=8.877746628780E-02
+ Cs=4.700000000000E-09
+ Ls=4.394975700000E-10
+ Rp=1.000000000000E+10
Cs N002 2 Q=(x*{Csat})+({C0}*{Vth}*arctan(sinh(x/{Vth})))-({Csat}*{Vth}*(arctan(sinh(x/{Vth}))))
Rs N001 1 {Rs}
Ls N001 N002 {Ls}
Rp N002 2 {Rp}
RGND1 0 N002 1e12
RGND2 2 0 1e12
.backanno
.ends
*******
.subckt 0603X7R_6-8nF_885012206113 1 2 
.param
+ C0=6.800000000000E-09
+ Csat=6.802293414910E-10
+ Vth=5.958033236690E+01
+ Rs=5.664718757390E-02
+ Cs=6.800000000000E-09
+ Ls=4.042708890000E-10
+ Rp=1.000000000000E+10
Cs N002 2 Q=(x*{Csat})+({C0}*{Vth}*arctan(sinh(x/{Vth})))-({Csat}*{Vth}*(arctan(sinh(x/{Vth}))))
Rs N001 1 {Rs}
Ls N001 N002 {Ls}
Rp N002 2 {Rp}
RGND1 0 N002 1e12
RGND2 2 0 1e12
.backanno
.ends
*******
.subckt 0603X7R_10nF_885012206114R 1 2 
.param
+ C0=1.000000000000E-08
+ Csat=1.000140109246E-09
+ Vth=5.716924186975E+01
+ Rs=6.143051595360E-02
+ Cs=1.000000000000E-08
+ Ls=4.585702640000E-10
+ Rp=1.000000000000E+10
Cs N002 2 Q=(x*{Csat})+({C0}*{Vth}*arctan(sinh(x/{Vth})))-({Csat}*{Vth}*(arctan(sinh(x/{Vth}))))
Rs N001 1 {Rs}
Ls N001 N002 {Ls}
Rp N002 2 {Rp}
RGND1 0 N002 1e12
RGND2 2 0 1e12
.backanno
.ends
*******
.subckt 0603X7R_10nF_885012206114 1 2 
.param
+ C0=1.000000000000E-08
+ Csat=1.000001263114E-09
+ Vth=5.717032930657E+01
+ Rs=6.143051595360E-02
+ Cs=1.000000000000E-08
+ Ls=4.585702640000E-10
+ Rp=1.000000000000E+10
Cs N002 2 Q=(x*{Csat})+({C0}*{Vth}*arctan(sinh(x/{Vth})))-({Csat}*{Vth}*(arctan(sinh(x/{Vth}))))
Rs N001 1 {Rs}
Ls N001 N002 {Ls}
Rp N002 2 {Rp}
RGND1 0 N002 1e12
RGND2 2 0 1e12
.backanno
.ends
*******
.subckt 0603X7R_100nF_885012206120 1 2 
.param
+ C0=1.000000000000E-07
+ Csat=1.348242381770E-08
+ Vth=2.646225920162E+01
+ Rs=2.000000000000E-02
+ Cs=1.000000000000E-07
+ Ls=8.000000000000E-10
+ Rp=1.000000000000E+09
Cs N002 2 Q=(x*{Csat})+({C0}*{Vth}*arctan(sinh(x/{Vth})))-({Csat}*{Vth}*(arctan(sinh(x/{Vth}))))
Rs N001 1 {Rs}
Ls N001 N002 {Ls}
Rp N002 2 {Rp}
RGND1 0 N002 1e12
RGND2 2 0 1e12
.backanno
.ends
*******
.subckt 0603X7R_47nF_885012206118 1 2 
.param
+ C0=4.700000000000E-08
+ Csat=6.732207785499E-09
+ Vth=2.770687317713E+01
+ Rs=2.609664312760E-02
+ Cs=4.700000000000E-08
+ Ls=4.029611060000E-10
+ Rp=2.100000000000E+09
Cs N002 2 Q=(x*{Csat})+({C0}*{Vth}*arctan(sinh(x/{Vth})))-({Csat}*{Vth}*(arctan(sinh(x/{Vth}))))
Rs N001 1 {Rs}
Ls N001 N002 {Ls}
Rp N002 2 {Rp}
RGND1 0 N002 1e12
RGND2 2 0 1e12
.backanno
.ends
*******
.subckt 0603X7R_100pF_885012206102 1 2 
.param
+ C0=1.000000000000E-10
+ Csat=1.000000000000E-10
+ Vth=1.000000000000E+00
+ Rs=9.037932014490E-01
+ Cs=1.000000000000E-10
+ Ls=4.309273680000E-10
+ Rp=1.000000000000E+10
Cs N002 2 Q=(x*{Csat})+({C0}*{Vth}*arctan(sinh(x/{Vth})))-({Csat}*{Vth}*(arctan(sinh(x/{Vth}))))
Rs N001 1 {Rs}
Ls N001 N002 {Ls}
Rp N002 2 {Rp}
RGND1 0 N002 1e12
RGND2 2 0 1e12
.backanno
.ends
*******
.subckt 0603NP0_10pF_885012006073 1 2 
.param
+ Rs=4.074241447410E-01
+ Cs=1.000000000000E-11
+ Ls=5.413040780000E-10
+ Rp=1.000000000000E+10
Cs N002 2 {Cs}
Rs N001 1 {Rs}
Ls N001 N002 {Ls}
Rp N002 2 {Rp}
RGND1 0 N002 1e12
RGND2 2 0 1e12
.backanno
.ends
*******
.subckt 0603NP0_15pF_885012006074 1 2 
.param
+ Rs=3.805848522520E-01
+ Cs=1.500000000000E-11
+ Ls=5.658045450000E-10
+ Rp=1.000000000000E+10
Cs N002 2 {Cs}
Rs N001 1 {Rs}
Ls N001 N002 {Ls}
Rp N002 2 {Rp}
RGND1 0 N002 1e12
RGND2 2 0 1e12
.backanno
.ends
*******
.subckt 0603NP0_33pF_885012006076 1 2 
.param
+ Rs=2.868629984140E-01
+ Cs=3.300000000000E-11
+ Ls=6.505610950000E-10
+ Rp=1.000000000000E+10
Cs N002 2 {Cs}
Rs N001 1 {Rs}
Ls N001 N002 {Ls}
Rp N002 2 {Rp}
RGND1 0 N002 1e12
RGND2 2 0 1e12
.backanno
.ends
*******
.subckt 0603NP0_47pF_885012006077 1 2 
.param
+ Rs=2.458030820050E-01
+ Cs=4.700000000000E-11
+ Ls=6.359725970000E-10
+ Rp=1.000000000000E+10
Cs N002 2 {Cs}
Rs N001 1 {Rs}
Ls N001 N002 {Ls}
Rp N002 2 {Rp}
RGND1 0 N002 1e12
RGND2 2 0 1e12
.backanno
.ends
*******
.subckt 0603NP0_68pF_885012006078 1 2 
.param
+ Rs=2.007326364340E-01
+ Cs=6.800000000000E-11
+ Ls=5.986719060000E-10
+ Rp=1.000000000000E+10
Cs N002 2 {Cs}
Rs N001 1 {Rs}
Ls N001 N002 {Ls}
Rp N002 2 {Rp}
RGND1 0 N002 1e12
RGND2 2 0 1e12
.backanno
.ends
*******
.subckt 0603NP0_100pF_885012006079 1 2 
.param
+ Rs=1.477365481240E-01
+ Cs=1.000000000000E-10
+ Ls=5.507136390000E-10
+ Rp=1.000000000000E+10
Cs N002 2 {Cs}
Rs N001 1 {Rs}
Ls N001 N002 {Ls}
Rp N002 2 {Rp}
RGND1 0 N002 1e12
RGND2 2 0 1e12
.backanno
.ends
*******
.subckt 0603NP0_150pF_885012006080 1 2 
.param
+ Rs=1.230964647460E-01
+ Cs=1.500000000000E-10
+ Ls=5.272260810000E-10
+ Rp=1.000000000000E+10
Cs N002 2 {Cs}
Rs N001 1 {Rs}
Ls N001 N002 {Ls}
Rp N002 2 {Rp}
RGND1 0 N002 1e12
RGND2 2 0 1e12
.backanno
.ends
*******
.subckt 0603NP0_330pF_885012006082 1 2 
.param
+ Rs=9.533002107970E-02
+ Cs=3.300000000000E-10
+ Ls=4.240723730000E-10
+ Rp=1.000000000000E+10
Cs N002 2 {Cs}
Rs N001 1 {Rs}
Ls N001 N002 {Ls}
Rp N002 2 {Rp}
RGND1 0 N002 1e12
RGND2 2 0 1e12
.backanno
.ends
*******
.subckt 0603NP0_470pF_885012006083 1 2 
.param
+ Rs=7.013827981450E-02
+ Cs=4.700000000000E-10
+ Ls=4.133984940000E-10
+ Rp=1.000000000000E+10
Cs N002 2 {Cs}
Rs N001 1 {Rs}
Ls N001 N002 {Ls}
Rp N002 2 {Rp}
RGND1 0 N002 1e12
RGND2 2 0 1e12
.backanno
.ends
*******
.subckt 0603NP0_680pF_885012006084 1 2 
.param
+ Rs=6.210728944880E-02
+ Cs=6.800000000000E-10
+ Ls=4.134750860000E-10
+ Rp=1.000000000000E+10
Cs N002 2 {Cs}
Rs N001 1 {Rs}
Ls N001 N002 {Ls}
Rp N002 2 {Rp}
RGND1 0 N002 1e12
RGND2 2 0 1e12
.backanno
.ends
*******
.subckt 0603NP0_1nF_885012006085 1 2 
.param
+ Rs=5.325275835240E-02
+ Cs=1.000000000000E-09
+ Ls=3.275579810000E-10
+ Rp=1.000000000000E+10
Cs N002 2 {Cs}
Rs N001 1 {Rs}
Ls N001 N002 {Ls}
Rp N002 2 {Rp}
RGND1 0 N002 1e12
RGND2 2 0 1e12
.backanno
.ends
*******
.subckt 0805X7R_330pF_885012207113 1 2 
.param
+ C0=3.300000000000E-10
+ Csat=2.963795088138E-10
+ Vth=9.990316581759E+03
+ Rs=8.841498040920E-01
+ Cs=3.300000000000E-10
+ Ls=3.168303410000E-10
+ Rp=1.000000000000E+10
Cs N002 2 Q=(x*{Csat})+({C0}*{Vth}*arctan(sinh(x/{Vth})))-({Csat}*{Vth}*(arctan(sinh(x/{Vth}))))
Rs N001 1 {Rs}
Ls N001 N002 {Ls}
Rp N002 2 {Rp}
RGND1 0 N002 1e12
RGND2 2 0 1e12
.backanno
.ends
*******
.subckt 0805X7R_1nF_885012207116 1 2 
.param
+ C0=1.000000000000E-09
+ Csat=1.003421658569E-10
+ Vth=4.987043876939E+02
+ Rs=2.002012883890E-01
+ Cs=1.000000000000E-09
+ Ls=4.277064130000E-10
+ Rp=1.000000000000E+10
Cs N002 2 Q=(x*{Csat})+({C0}*{Vth}*arctan(sinh(x/{Vth})))-({Csat}*{Vth}*(arctan(sinh(x/{Vth}))))
Rs N001 1 {Rs}
Ls N001 N002 {Ls}
Rp N002 2 {Rp}
RGND1 0 N002 1e12
RGND2 2 0 1e12
.backanno
.ends
*******
.subckt 0805X7R_680pF_885012207115 1 2 
.param
+ C0=6.800000000000E-10
+ Csat=6.802682217403E-11
+ Vth=3.879251683332E+02
+ Rs=4.413996524180E-01
+ Cs=6.800000000000E-10
+ Ls=3.855338330000E-10
+ Rp=1.000000000000E+10
Cs N002 2 Q=(x*{Csat})+({C0}*{Vth}*arctan(sinh(x/{Vth})))-({Csat}*{Vth}*(arctan(sinh(x/{Vth}))))
Rs N001 1 {Rs}
Ls N001 N002 {Ls}
Rp N002 2 {Rp}
RGND1 0 N002 1e12
RGND2 2 0 1e12
.backanno
.ends
*******
.subckt 0805X7R_470pF_885012207114 1 2 
.param
+ C0=4.700000000000E-10
+ Csat=4.999556811425E-11
+ Vth=4.198859889439E+02
+ Rs=3.742367481730E-01
+ Cs=4.700000000000E-10
+ Ls=4.699879590000E-10
+ Rp=1.000000000000E+10
Cs N002 2 Q=(x*{Csat})+({C0}*{Vth}*arctan(sinh(x/{Vth})))-({Csat}*{Vth}*(arctan(sinh(x/{Vth}))))
Rs N001 1 {Rs}
Ls N001 N002 {Ls}
Rp N002 2 {Rp}
RGND1 0 N002 1e12
RGND2 2 0 1e12
.backanno
.ends
*******
.subckt 0805X7R_1-5nF_885012207117 1 2 
.param
+ C0=1.500000000000E-09
+ Csat=1.500037312825E-10
+ Vth=1.127485502132E+02
+ Rs=1.658132532830E-01
+ Cs=1.500000000000E-09
+ Ls=4.700693050000E-10
+ Rp=1.000000000000E+10
Cs N002 2 Q=(x*{Csat})+({C0}*{Vth}*arctan(sinh(x/{Vth})))-({Csat}*{Vth}*(arctan(sinh(x/{Vth}))))
Rs N001 1 {Rs}
Ls N001 N002 {Ls}
Rp N002 2 {Rp}
RGND1 0 N002 1e12
RGND2 2 0 1e12
.backanno
.ends
*******
.subckt 0805X7R_3-3nF_885012207119 1 2 
.param
+ C0=3.300000000000E-09
+ Csat=3.300000011727E-10
+ Vth=5.331026569815E+01
+ Rs=1.079940170510E-01
+ Cs=3.300000000000E-09
+ Ls=4.670272780000E-10
+ Rp=1.000000000000E+10
Cs N002 2 Q=(x*{Csat})+({C0}*{Vth}*arctan(sinh(x/{Vth})))-({Csat}*{Vth}*(arctan(sinh(x/{Vth}))))
Rs N001 1 {Rs}
Ls N001 N002 {Ls}
Rp N002 2 {Rp}
RGND1 0 N002 1e12
RGND2 2 0 1e12
.backanno
.ends
*******
.subckt 0805X7R_15nF_885012207123 1 2 
.param
+ C0=1.500000000000E-08
+ Csat=1.500000011948E-09
+ Vth=4.577310772303E+01
+ Rs=4.186988316860E-02
+ Cs=1.500000000000E-08
+ Ls=4.510862180000E-10
+ Rp=6.700000000000E+09
Cs N002 2 Q=(x*{Csat})+({C0}*{Vth}*arctan(sinh(x/{Vth})))-({Csat}*{Vth}*(arctan(sinh(x/{Vth}))))
Rs N001 1 {Rs}
Ls N001 N002 {Ls}
Rp N002 2 {Rp}
RGND1 0 N002 1e12
RGND2 2 0 1e12
.backanno
.ends
*******
.subckt 0805X7R_10nF_885012207122 1 2 
.param
+ C0=1.000000000000E-08
+ Csat=1.000000000002E-09
+ Vth=4.820548858850E+01
+ Rs=6.025427934230E-02
+ Cs=1.000000000000E-08
+ Ls=5.205808510000E-10
+ Rp=1.000000000000E+10
Cs N002 2 Q=(x*{Csat})+({C0}*{Vth}*arctan(sinh(x/{Vth})))-({Csat}*{Vth}*(arctan(sinh(x/{Vth}))))
Rs N001 1 {Rs}
Ls N001 N002 {Ls}
Rp N002 2 {Rp}
RGND1 0 N002 1e12
RGND2 2 0 1e12
.backanno
.ends
*******
.subckt 0805X7R_100nF_885012207128 1 2 
.param
+ C0=1.000000000000E-07
+ Csat=1.000000008320E-08
+ Vth=3.994320220055E+01
+ Rs=1.147944096610E-02
+ Cs=1.000000000000E-07
+ Ls=3.712338520000E-10
+ Rp=1.000000000000E+09
Cs N002 2 Q=(x*{Csat})+({C0}*{Vth}*arctan(sinh(x/{Vth})))-({Csat}*{Vth}*(arctan(sinh(x/{Vth}))))
Rs N001 1 {Rs}
Ls N001 N002 {Ls}
Rp N002 2 {Rp}
RGND1 0 N002 1e12
RGND2 2 0 1e12
.backanno
.ends
*******
.subckt 0805X7R_33nF_885012207125 1 2 
.param
+ C0=3.300000000000E-08
+ Csat=3.300000065626E-09
+ Vth=4.666599382088E+01
+ Rs=2.785548144200E-02
+ Cs=3.300000000000E-08
+ Ls=4.026681600000E-10
+ Rp=3.000000000000E+09
Cs N002 2 Q=(x*{Csat})+({C0}*{Vth}*arctan(sinh(x/{Vth})))-({Csat}*{Vth}*(arctan(sinh(x/{Vth}))))
Rs N001 1 {Rs}
Ls N001 N002 {Ls}
Rp N002 2 {Rp}
RGND1 0 N002 1e12
RGND2 2 0 1e12
.backanno
.ends
*******
.subckt 0805X7R_4-7nF_885012207120 1 2 
.param
+ C0=4.700000000000E-09
+ Csat=7.814092275167E-10
+ Vth=6.485670618387E+01
+ Rs=8.193870833840E-02
+ Cs=4.700000000000E-09
+ Ls=4.012685530000E-10
+ Rp=1.000000000000E+10
Cs N002 2 Q=(x*{Csat})+({C0}*{Vth}*arctan(sinh(x/{Vth})))-({Csat}*{Vth}*(arctan(sinh(x/{Vth}))))
Rs N001 1 {Rs}
Ls N001 N002 {Ls}
Rp N002 2 {Rp}
RGND1 0 N002 1e12
RGND2 2 0 1e12
.backanno
.ends
*******
.subckt 0805X7R_68nF_885012207127 1 2 
.param
+ C0=6.800000000000E-08
+ Csat=7.002736131564E-09
+ Vth=3.978604193984E+01
+ Rs=1.319926585650E-02
+ Cs=6.800000000000E-08
+ Ls=3.667970210000E-10
+ Rp=1.500000000000E+09
Cs N002 2 Q=(x*{Csat})+({C0}*{Vth}*arctan(sinh(x/{Vth})))-({Csat}*{Vth}*(arctan(sinh(x/{Vth}))))
Rs N001 1 {Rs}
Ls N001 N002 {Ls}
Rp N002 2 {Rp}
RGND1 0 N002 1e12
RGND2 2 0 1e12
.backanno
.ends
*******
.subckt 0805X7R_47nF_885012207126 1 2 
.param
+ C0=4.700000000000E-08
+ Csat=7.379114402223E-09
+ Vth=3.867963186743E+01
+ Rs=1.936813459470E-02
+ Cs=4.700000000000E-08
+ Ls=3.565115930000E-10
+ Rp=2.100000000000E+09
Cs N002 2 Q=(x*{Csat})+({C0}*{Vth}*arctan(sinh(x/{Vth})))-({Csat}*{Vth}*(arctan(sinh(x/{Vth}))))
Rs N001 1 {Rs}
Ls N001 N002 {Ls}
Rp N002 2 {Rp}
RGND1 0 N002 1e12
RGND2 2 0 1e12
.backanno
.ends
*******
.subckt 0805X7R_6-8nF_885012207121 1 2 
.param
+ C0=6.800000000000E-09
+ Csat=1.075838471052E-09
+ Vth=4.002990404009E+01
+ Rs=7.303766660680E-02
+ Cs=6.800000000000E-09
+ Ls=4.710787920000E-10
+ Rp=1.000000000000E+10
Cs N002 2 Q=(x*{Csat})+({C0}*{Vth}*arctan(sinh(x/{Vth})))-({Csat}*{Vth}*(arctan(sinh(x/{Vth}))))
Rs N001 1 {Rs}
Ls N001 N002 {Ls}
Rp N002 2 {Rp}
RGND1 0 N002 1e12
RGND2 2 0 1e12
.backanno
.ends
*******
.subckt 0805X7R_22nF_885012207124 1 2 
.param
+ C0=2.200000000000E-08
+ Csat=6.045618310966E-09
+ Vth=2.920708831714E+01
+ Rs=5.000000000000E-02
+ Cs=2.200000000000E-08
+ Ls=5.343406780000E-10
+ Rp=4.500000000000E+09
Cs N002 2 Q=(x*{Csat})+({C0}*{Vth}*arctan(sinh(x/{Vth})))-({Csat}*{Vth}*(arctan(sinh(x/{Vth}))))
Rs N001 1 {Rs}
Ls N001 N002 {Ls}
Rp N002 2 {Rp}
RGND1 0 N002 1e12
RGND2 2 0 1e12
.backanno
.ends
*******
.subckt 0805X7R_100pF_885012207110 1 2 
.param
+ C0=1.000000000000E-10
+ Csat=1.000000000000E-10
+ Vth=1.000000000000E+00
+ Rs=8.935421079540E-01
+ Cs=1.000000000000E-10
+ Ls=3.728403090000E-10
+ Rp=1.000000000000E+10
Cs N002 2 Q=(x*{Csat})+({C0}*{Vth}*arctan(sinh(x/{Vth})))-({Csat}*{Vth}*(arctan(sinh(x/{Vth}))))
Rs N001 1 {Rs}
Ls N001 N002 {Ls}
Rp N002 2 {Rp}
RGND1 0 N002 1e12
RGND2 2 0 1e12
.backanno
.ends
*******
.subckt 0805X7R_150pF_885012207111 1 2 
.param
+ C0=1.500000000000E-10
+ Csat=1.500000000000E-10
+ Vth=1.000000000000E+00
+ Rs=7.539319276300E-01
+ Cs=1.500000000000E-10
+ Ls=4.307865270000E-10
+ Rp=1.000000000000E+10
Cs N002 2 Q=(x*{Csat})+({C0}*{Vth}*arctan(sinh(x/{Vth})))-({Csat}*{Vth}*(arctan(sinh(x/{Vth}))))
Rs N001 1 {Rs}
Ls N001 N002 {Ls}
Rp N002 2 {Rp}
RGND1 0 N002 1e12
RGND2 2 0 1e12
.backanno
.ends
*******
.subckt 0805NP0_10pF_885012007076 1 2 
.param
+ Rs=3.489785889990E-01
+ Cs=1.000000000000E-11
+ Ls=4.652016610000E-10
+ Rp=1.000000000000E+10
Cs N002 2 {Cs}
Rs N001 1 {Rs}
Ls N001 N002 {Ls}
Rp N002 2 {Rp}
RGND1 0 N002 1e12
RGND2 2 0 1e12
.backanno
.ends
*******
.subckt 0805NP0_15pF_885012007077 1 2 
.param
+ Rs=2.999484875060E-01
+ Cs=1.500000000000E-11
+ Ls=4.544235040000E-10
+ Rp=1.000000000000E+10
Cs N002 2 {Cs}
Rs N001 1 {Rs}
Ls N001 N002 {Ls}
Rp N002 2 {Rp}
RGND1 0 N002 1e12
RGND2 2 0 1e12
.backanno
.ends
*******
.subckt 0805NP0_33pF_885012007079 1 2 
.param
+ Rs=1.219802826440E-01
+ Cs=3.300000000000E-11
+ Ls=4.438598480000E-10
+ Rp=1.000000000000E+10
Cs N002 2 {Cs}
Rs N001 1 {Rs}
Ls N001 N002 {Ls}
Rp N002 2 {Rp}
RGND1 0 N002 1e12
RGND2 2 0 1e12
.backanno
.ends
*******
.subckt 0805NP0_47pF_885012007080 1 2 
.param
+ Rs=1.668112293950E-01
+ Cs=4.700000000000E-11
+ Ls=4.106379590000E-10
+ Rp=1.000000000000E+10
Cs N002 2 {Cs}
Rs N001 1 {Rs}
Ls N001 N002 {Ls}
Rp N002 2 {Rp}
RGND1 0 N002 1e12
RGND2 2 0 1e12
.backanno
.ends
*******
.subckt 0805NP0_68pF_885012007081 1 2 
.param
+ Rs=1.807601595310E-01
+ Cs=6.800000000000E-11
+ Ls=3.862670290000E-10
+ Rp=1.000000000000E+10
Cs N002 2 {Cs}
Rs N001 1 {Rs}
Ls N001 N002 {Ls}
Rp N002 2 {Rp}
RGND1 0 N002 1e12
RGND2 2 0 1e12
.backanno
.ends
*******
.subckt 0805NP0_100pF_885012007082 1 2 
.param
+ Rs=7.530790484390E-02
+ Cs=1.000000000000E-10
+ Ls=2.909739880000E-10
+ Rp=1.000000000000E+10
Cs N002 2 {Cs}
Rs N001 1 {Rs}
Ls N001 N002 {Ls}
Rp N002 2 {Rp}
RGND1 0 N002 1e12
RGND2 2 0 1e12
.backanno
.ends
*******
.subckt 0805NP0_150pF_885012007083 1 2 
.param
+ Rs=1.989422653580E-01
+ Cs=1.500000000000E-10
+ Ls=3.898989480000E-10
+ Rp=1.000000000000E+10
Cs N002 2 {Cs}
Rs N001 1 {Rs}
Ls N001 N002 {Ls}
Rp N002 2 {Rp}
RGND1 0 N002 1e12
RGND2 2 0 1e12
.backanno
.ends
*******
.subckt 0805NP0_330pF_885012007085 1 2 
.param
+ Rs=7.769361342540E-02
+ Cs=3.300000000000E-10
+ Ls=2.608034150000E-10
+ Rp=1.000000000000E+10
Cs N002 2 {Cs}
Rs N001 1 {Rs}
Ls N001 N002 {Ls}
Rp N002 2 {Rp}
RGND1 0 N002 1e12
RGND2 2 0 1e12
.backanno
.ends
*******
.subckt 0805NP0_470pF_885012007086 1 2 
.param
+ Rs=5.885536475020E-02
+ Cs=4.700000000000E-10
+ Ls=2.978405210000E-10
+ Rp=1.000000000000E+10
Cs N002 2 {Cs}
Rs N001 1 {Rs}
Ls N001 N002 {Ls}
Rp N002 2 {Rp}
RGND1 0 N002 1e12
RGND2 2 0 1e12
.backanno
.ends
*******
.subckt 0805NP0_680pF_885012007087 1 2 
.param
+ Rs=6.278226740910E-02
+ Cs=6.800000000000E-10
+ Ls=2.568564860000E-10
+ Rp=1.000000000000E+10
Cs N002 2 {Cs}
Rs N001 1 {Rs}
Ls N001 N002 {Ls}
Rp N002 2 {Rp}
RGND1 0 N002 1e12
RGND2 2 0 1e12
.backanno
.ends
*******
.subckt 0805NP0_1nF_885012007088 1 2 
.param
+ Rs=3.691908156030E-02
+ Cs=1.000000000000E-09
+ Ls=3.028242050000E-10
+ Rp=1.000000000000E+10
Cs N002 2 {Cs}
Rs N001 1 {Rs}
Ls N001 N002 {Ls}
Rp N002 2 {Rp}
RGND1 0 N002 1e12
RGND2 2 0 1e12
.backanno
.ends
*******
.subckt 0805NP0_1-5nF_885012007089 1 2 
.param
+ Rs=4.449134094630E-02
+ Cs=1.500000000000E-09
+ Ls=3.700413380000E-10
+ Rp=1.000000000000E+10
Cs N002 2 {Cs}
Rs N001 1 {Rs}
Ls N001 N002 {Ls}
Rp N002 2 {Rp}
RGND1 0 N002 1e12
RGND2 2 0 1e12
.backanno
.ends
*******
.subckt 0805NP0_3-3nF_885012007091 1 2 
.param
+ Rs=2.388623332960E-02
+ Cs=3.300000000000E-09
+ Ls=3.523403610000E-10
+ Rp=1.000000000000E+10
Cs N002 2 {Cs}
Rs N001 1 {Rs}
Ls N001 N002 {Ls}
Rp N002 2 {Rp}
RGND1 0 N002 1e12
RGND2 2 0 1e12
.backanno
.ends
*******
.subckt 0805NP0_4-7nF_885012007092 1 2 
.param
+ Rs=3.602903299230E-02
+ Cs=4.700000000000E-09
+ Ls=3.138535830000E-10
+ Rp=1.000000000000E+10
Cs N002 2 {Cs}
Rs N001 1 {Rs}
Ls N001 N002 {Ls}
Rp N002 2 {Rp}
RGND1 0 N002 1e12
RGND2 2 0 1e12
.backanno
.ends
*******
.subckt 1206X7R_1-5nF_885012208107 1 2 
.param
+ C0=1.500000000000E-09
+ Csat=1.349999942878E-09
+ Vth=9.960151921028E+03
+ Rs=1.855074321660E-01
+ Cs=1.500000000000E-09
+ Ls=4.570258500000E-10
+ Rp=1.000000000000E+10
Cs N002 2 Q=(x*{Csat})+({C0}*{Vth}*arctan(sinh(x/{Vth})))-({Csat}*{Vth}*(arctan(sinh(x/{Vth}))))
Rs N001 1 {Rs}
Ls N001 N002 {Ls}
Rp N002 2 {Rp}
RGND1 0 N002 1e12
RGND2 2 0 1e12
.backanno
.ends
*******
.subckt 1206X7R_1nF_885012208106 1 2 
.param
+ C0=1.000000000000E-09
+ Csat=8.953495649248E-10
+ Vth=9.905064289557E+03
+ Rs=2.436186454500E-01
+ Cs=1.000000000000E-09
+ Ls=4.487641510000E-10
+ Rp=1.000000000000E+10
Cs N002 2 Q=(x*{Csat})+({C0}*{Vth}*arctan(sinh(x/{Vth})))-({Csat}*{Vth}*(arctan(sinh(x/{Vth}))))
Rs N001 1 {Rs}
Ls N001 N002 {Ls}
Rp N002 2 {Rp}
RGND1 0 N002 1e12
RGND2 2 0 1e12
.backanno
.ends
*******
.subckt 1206X7R_6-8nF_885012208111 1 2 
.param
+ C0=6.800000000000E-09
+ Csat=6.800755417983E-10
+ Vth=8.784484000608E+02
+ Rs=7.859598307020E-02
+ Cs=6.800000000000E-09
+ Ls=5.430163220000E-10
+ Rp=1.000000000000E+10
Cs N002 2 Q=(x*{Csat})+({C0}*{Vth}*arctan(sinh(x/{Vth})))-({Csat}*{Vth}*(arctan(sinh(x/{Vth}))))
Rs N001 1 {Rs}
Ls N001 N002 {Ls}
Rp N002 2 {Rp}
RGND1 0 N002 1e12
RGND2 2 0 1e12
.backanno
.ends
*******
.subckt 1206X7R_15nF_885012208113 1 2 
.param
+ C0=1.500000000000E-08
+ Csat=1.500021114381E-09
+ Vth=1.186799297676E+02
+ Rs=5.626073703690E-02
+ Cs=1.500000000000E-08
+ Ls=5.197982060000E-10
+ Rp=6.700000000000E+09
Cs N002 2 Q=(x*{Csat})+({C0}*{Vth}*arctan(sinh(x/{Vth})))-({Csat}*{Vth}*(arctan(sinh(x/{Vth}))))
Rs N001 1 {Rs}
Ls N001 N002 {Ls}
Rp N002 2 {Rp}
RGND1 0 N002 1e12
RGND2 2 0 1e12
.backanno
.ends
*******
.subckt 1206X7R_10nF_885012208112 1 2 
.param
+ C0=1.000000000000E-08
+ Csat=1.000060220661E-09
+ Vth=1.195784519201E+02
+ Rs=8.212674790080E-02
+ Cs=1.000000000000E-08
+ Ls=5.058948890000E-10
+ Rp=1.000000000000E+10
Cs N002 2 Q=(x*{Csat})+({C0}*{Vth}*arctan(sinh(x/{Vth})))-({Csat}*{Vth}*(arctan(sinh(x/{Vth}))))
Rs N001 1 {Rs}
Ls N001 N002 {Ls}
Rp N002 2 {Rp}
RGND1 0 N002 1e12
RGND2 2 0 1e12
.backanno
.ends
*******
.subckt 1206X7R_47nF_885012208116 1 2 
.param
+ C0=4.700000000000E-08
+ Csat=4.700085579340E-09
+ Vth=1.128516737994E+02
+ Rs=3.626765315270E-02
+ Cs=4.700000000000E-08
+ Ls=5.262890350000E-10
+ Rp=2.100000000000E+09
Cs N002 2 Q=(x*{Csat})+({C0}*{Vth}*arctan(sinh(x/{Vth})))-({Csat}*{Vth}*(arctan(sinh(x/{Vth}))))
Rs N001 1 {Rs}
Ls N001 N002 {Ls}
Rp N002 2 {Rp}
RGND1 0 N002 1e12
RGND2 2 0 1e12
.backanno
.ends
*******
.subckt 1206X7R_100nF_885012208118 1 2 
.param
+ C0=1.000000000000E-07
+ Csat=1.000001728841E-08
+ Vth=5.153097871864E+01
+ Rs=1.474988558330E-02
+ Cs=1.000000000000E-07
+ Ls=5.506360980000E-10
+ Rp=1.000000000000E+09
Cs N002 2 Q=(x*{Csat})+({C0}*{Vth}*arctan(sinh(x/{Vth})))-({Csat}*{Vth}*(arctan(sinh(x/{Vth}))))
Rs N001 1 {Rs}
Ls N001 N002 {Ls}
Rp N002 2 {Rp}
RGND1 0 N002 1e12
RGND2 2 0 1e12
.backanno
.ends
*******
.subckt 1206X7R_4-7nF_885012208110 1 2 
.param
+ C0=4.700000000000E-09
+ Csat=4.700132512054E-10
+ Vth=4.944276557449E+01
+ Rs=1.000000000000E-01
+ Cs=4.700000000000E-09
+ Ls=4.900000000000E-10
+ Rp=1.000000000000E+10
Cs N002 2 Q=(x*{Csat})+({C0}*{Vth}*arctan(sinh(x/{Vth})))-({Csat}*{Vth}*(arctan(sinh(x/{Vth}))))
Rs N001 1 {Rs}
Ls N001 N002 {Ls}
Rp N002 2 {Rp}
RGND1 0 N002 1e12
RGND2 2 0 1e12
.backanno
.ends
*******
.subckt 1206X7R_68nF_885012208117 1 2 
.param
+ C0=6.800000000000E-08
+ Csat=6.800081542005E-09
+ Vth=5.431003515718E+01
+ Rs=2.062529214910E-02
+ Cs=6.800000000000E-08
+ Ls=4.868990300000E-10
+ Rp=1.500000000000E+09
Cs N002 2 Q=(x*{Csat})+({C0}*{Vth}*arctan(sinh(x/{Vth})))-({Csat}*{Vth}*(arctan(sinh(x/{Vth}))))
Rs N001 1 {Rs}
Ls N001 N002 {Ls}
Rp N002 2 {Rp}
RGND1 0 N002 1e12
RGND2 2 0 1e12
.backanno
.ends
*******
.subckt 1206X7R_150nF_885012208119 1 2 
.param
+ C0=1.500000000000E-07
+ Csat=2.143209852350E-08
+ Vth=4.331930696208E+01
+ Rs=8.009747232870E-03
+ Cs=1.500000000000E-07
+ Ls=3.656697630000E-10
+ Rp=7.000000000000E+08
Cs N002 2 Q=(x*{Csat})+({C0}*{Vth}*arctan(sinh(x/{Vth})))-({Csat}*{Vth}*(arctan(sinh(x/{Vth}))))
Rs N001 1 {Rs}
Ls N001 N002 {Ls}
Rp N002 2 {Rp}
RGND1 0 N002 1e12
RGND2 2 0 1e12
.backanno
.ends
*******
.subckt 1206X7R_150pF_885012208101 1 2 
.param
+ C0=1.500000000000E-10
+ Csat=1.881503026888E-11
+ Vth=5.272799261093E+01
+ Rs=7.036510261100E-01
+ Cs=1.500000000000E-10
+ Ls=3.789927690000E-10
+ Rp=1.000000000000E+10
Cs N002 2 Q=(x*{Csat})+({C0}*{Vth}*arctan(sinh(x/{Vth})))-({Csat}*{Vth}*(arctan(sinh(x/{Vth}))))
Rs N001 1 {Rs}
Ls N001 N002 {Ls}
Rp N002 2 {Rp}
RGND1 0 N002 1e12
RGND2 2 0 1e12
.backanno
.ends
*******
.subckt 1206X7R_33nF_885012208115 1 2 
.param
+ C0=3.300000000000E-08
+ Csat=6.993113664086E-09
+ Vth=4.285200170233E+01
+ Rs=6.338892150430E-02
+ Cs=3.300000000000E-08
+ Ls=5.171429380000E-10
+ Rp=3.000000000000E+09
Cs N002 2 Q=(x*{Csat})+({C0}*{Vth}*arctan(sinh(x/{Vth})))-({Csat}*{Vth}*(arctan(sinh(x/{Vth}))))
Rs N001 1 {Rs}
Ls N001 N002 {Ls}
Rp N002 2 {Rp}
RGND1 0 N002 1e12
RGND2 2 0 1e12
.backanno
.ends
*******
.subckt 1206X7R_470nF_885012208122 1 2 
.param
+ C0=4.700000000000E-07
+ Csat=6.867120745195E-08
+ Vth=3.218134165954E+01
+ Rs=1.070409286800E-02
+ Cs=4.700000000000E-07
+ Ls=6.620096600000E-10
+ Rp=2.000000000000E+08
Cs N002 2 Q=(x*{Csat})+({C0}*{Vth}*arctan(sinh(x/{Vth})))-({Csat}*{Vth}*(arctan(sinh(x/{Vth}))))
Rs N001 1 {Rs}
Ls N001 N002 {Ls}
Rp N002 2 {Rp}
RGND1 0 N002 1e12
RGND2 2 0 1e12
.backanno
.ends
*******
.subckt 1206X7R_330pF_885012208103 1 2 
.param
+ C0=3.300000000000E-10
+ Csat=3.300000000000E-10
+ Vth=1.000000000000E+00
+ Rs=4.162896387960E-01
+ Cs=3.300000000000E-10
+ Ls=4.898282530000E-10
+ Rp=1.000000000000E+10
Cs N002 2 Q=(x*{Csat})+({C0}*{Vth}*arctan(sinh(x/{Vth})))-({Csat}*{Vth}*(arctan(sinh(x/{Vth}))))
Rs N001 1 {Rs}
Ls N001 N002 {Ls}
Rp N002 2 {Rp}
RGND1 0 N002 1e12
RGND2 2 0 1e12
.backanno
.ends
*******
.subckt 1206X7R_470pF_885012208104 1 2 
.param
+ C0=4.700000000000E-10
+ Csat=4.700000000000E-10
+ Vth=1.000000000000E+00
+ Rs=3.621096885420E-01
+ Cs=4.700000000000E-10
+ Ls=4.015519110000E-10
+ Rp=1.000000000000E+10
Cs N002 2 Q=(x*{Csat})+({C0}*{Vth}*arctan(sinh(x/{Vth})))-({Csat}*{Vth}*(arctan(sinh(x/{Vth}))))
Rs N001 1 {Rs}
Ls N001 N002 {Ls}
Rp N002 2 {Rp}
RGND1 0 N002 1e12
RGND2 2 0 1e12
.backanno
.ends
*******
.subckt 1206X7R_680pF_885012208105 1 2 
.param
+ C0=6.800000000000E-10
+ Csat=6.800000000000E-10
+ Vth=1.000000000000E+00
+ Rs=3.327672768540E-01
+ Cs=6.800000000000E-10
+ Ls=5.559815100000E-10
+ Rp=1.000000000000E+10
Cs N002 2 Q=(x*{Csat})+({C0}*{Vth}*arctan(sinh(x/{Vth})))-({Csat}*{Vth}*(arctan(sinh(x/{Vth}))))
Rs N001 1 {Rs}
Ls N001 N002 {Ls}
Rp N002 2 {Rp}
RGND1 0 N002 1e12
RGND2 2 0 1e12
.backanno
.ends
*******
.subckt 1206X7R_3-3nF_885012208109 1 2 
.param
+ C0=3.300000000000E-09
+ Csat=3.300000000000E-09
+ Vth=1.000000000000E+00
+ Rs=1.239715619110E-01