**************************************************
* Manufacturer:          Würth Elektronik
* Kinds:                 MLCCs Capacitors
* Matchcode:             WCAP-CSGP 25V DC bias
* Library Type:          LTspice
* Version:               rev22c
* Created/modified by:   Richard
* Date and Time:         2022/10/14
* Team:                  eiSos EDA Service  
* Contact:               libraries@we-online.com
**************************************************
* Copyright(C) 2022 Würth Elektronik eiSos GmbH & Co. KG
* All Rights Reserved.
**************************************************
* Disclaimer: While Würth Elektronik eiSos has made every reasonable effort to ensure the accuracy
* of the simulation models provided, Würth Elektronik eiSos does not guarantee the exemption of error on
* the simulation models, nor does Würth Elektronik eiSos guarantee that the simulation model is current.
* Würth Elektronik eiSos reserves the right to make any adjustments at any time without notice.
* Würth Elektronik eiSos expressly disclaims all implied warranties regarding this simulation model.
**************************************************
.subckt 0402X7R_1nF_885012205044 1 2 
.param
+ C0=1.000000000000E-09
+ Csat=6.855752717942E-10
+ Vth=2.272213851386E+03
+ Rs=2.145000000000E-01
+ Cs=1.000000000000E-09
+ Ls=1.530000000000E-10
+ Rp=1.000000000000E+10
Cs N002 2 Q=(x*{Csat})+({C0}*{Vth}*arctan(sinh(x/{Vth})))-({Csat}*{Vth}*(arctan(sinh(x/{Vth}))))
Rs N001 1 {Rs}
Ls N001 N002 {Ls}
Rp N002 2 {Rp}
RGND1 0 N002 1e12
RGND2 2 0 1e12
.backanno
.ends
*******
.subckt 0402X7R_330pF_885012205041 1 2 
.param
+ C0=3.300000000000E-10
+ Csat=3.301961459716E-11
+ Vth=4.667488329287E+02
+ Rs=4.733700000000E-01
+ Cs=3.300000000000E-10
+ Ls=1.807200000000E-10
+ Rp=1.000000000000E+10
Cs N002 2 Q=(x*{Csat})+({C0}*{Vth}*arctan(sinh(x/{Vth})))-({Csat}*{Vth}*(arctan(sinh(x/{Vth}))))
Rs N001 1 {Rs}
Ls N001 N002 {Ls}
Rp N002 2 {Rp}
RGND1 0 N002 1e12
RGND2 2 0 1e12
.backanno
.ends
*******
.subckt 0402X7R_2-2nF_885012205046 1 2 
.param
+ C0=2.200000000000E-09
+ Csat=2.203812424740E-10
+ Vth=8.755347990550E+01
+ Rs=1.608100000000E-01
+ Cs=2.200000000000E-09
+ Ls=1.879900000000E-10
+ Rp=1.000000000000E+10
Cs N002 2 Q=(x*{Csat})+({C0}*{Vth}*arctan(sinh(x/{Vth})))-({Csat}*{Vth}*(arctan(sinh(x/{Vth}))))
Rs N001 1 {Rs}
Ls N001 N002 {Ls}
Rp N002 2 {Rp}
RGND1 0 N002 1e12
RGND2 2 0 1e12
.backanno
.ends
*******
.subckt 0402X7R_220pF_885012205040 1 2 
.param
+ C0=2.200000000000E-10
+ Csat=2.249527812524E-11
+ Vth=2.228024350086E+02
+ Rs=5.653100000000E-01
+ Cs=2.200000000000E-10
+ Ls=1.906300000000E-10
+ Rp=1.000000000000E+10
Cs N002 2 Q=(x*{Csat})+({C0}*{Vth}*arctan(sinh(x/{Vth})))-({Csat}*{Vth}*(arctan(sinh(x/{Vth}))))
Rs N001 1 {Rs}
Ls N001 N002 {Ls}
Rp N002 2 {Rp}
RGND1 0 N002 1e12
RGND2 2 0 1e12
.backanno
.ends
*******
.subckt 0402X7R_680pF_885012205043 1 2 
.param
+ C0=6.800000000000E-10
+ Csat=6.800157182065E-11
+ Vth=1.445082518765E+02
+ Rs=2.654600000000E-01
+ Cs=6.800000000000E-10
+ Ls=1.408100000000E-10
+ Rp=1.000000000000E+10
Cs N002 2 Q=(x*{Csat})+({C0}*{Vth}*arctan(sinh(x/{Vth})))-({Csat}*{Vth}*(arctan(sinh(x/{Vth}))))
Rs N001 1 {Rs}
Ls N001 N002 {Ls}
Rp N002 2 {Rp}
RGND1 0 N002 1e12
RGND2 2 0 1e12
.backanno
.ends
*******
.subckt 0402X7R_1-5nF_885012205045 1 2 
.param
+ C0=1.500000000000E-09
+ Csat=1.500687836127E-10
+ Vth=6.581204258352E+01
+ Rs=2.028500000000E-01
+ Cs=1.500000000000E-09
+ Ls=2.572300000000E-10
+ Rp=1.000000000000E+10
Cs N002 2 Q=(x*{Csat})+({C0}*{Vth}*arctan(sinh(x/{Vth})))-({Csat}*{Vth}*(arctan(sinh(x/{Vth}))))
Rs N001 1 {Rs}
Ls N001 N002 {Ls}
Rp N002 2 {Rp}
RGND1 0 N002 1e12
RGND2 2 0 1e12
.backanno
.ends
*******
.subckt 0402X7R_6-8nF_885012205049 1 2 
.param
+ C0=6.800000000000E-09
+ Csat=6.800277326426E-10
+ Vth=4.642307971042E+01
+ Rs=7.100000000000E-02
+ Cs=6.800000000000E-09
+ Ls=1.901600000000E-10
+ Rp=1.000000000000E+10
Cs N002 2 Q=(x*{Csat})+({C0}*{Vth}*arctan(sinh(x/{Vth})))-({Csat}*{Vth}*(arctan(sinh(x/{Vth}))))
Rs N001 1 {Rs}
Ls N001 N002 {Ls}
Rp N002 2 {Rp}
RGND1 0 N002 1e12
RGND2 2 0 1e12
.backanno
.ends
*******
.subckt 0402X7R_3-3nF_885012205047 1 2 
.param
+ C0=3.300000000000E-09
+ Csat=3.314361020190E-10
+ Vth=5.720090047728E+01
+ Rs=1.251800000000E-01
+ Cs=3.300000000000E-09
+ Ls=2.059200000000E-10
+ Rp=1.000000000000E+10
Cs N002 2 Q=(x*{Csat})+({C0}*{Vth}*arctan(sinh(x/{Vth})))-({Csat}*{Vth}*(arctan(sinh(x/{Vth}))))
Rs N001 1 {Rs}
Ls N001 N002 {Ls}
Rp N002 2 {Rp}
RGND1 0 N002 1e12
RGND2 2 0 1e12
.backanno
.ends
*******
.subckt 0402X7R_4-7nF_885012205048 1 2 
.param
+ C0=4.700000000000E-09
+ Csat=4.761321394717E-10
+ Vth=5.526756486702E+01
+ Rs=9.048000000000E-02
+ Cs=4.700000000000E-09
+ Ls=1.499400000000E-10
+ Rp=1.000000000000E+10
Cs N002 2 Q=(x*{Csat})+({C0}*{Vth}*arctan(sinh(x/{Vth})))-({Csat}*{Vth}*(arctan(sinh(x/{Vth}))))
Rs N001 1 {Rs}
Ls N001 N002 {Ls}
Rp N002 2 {Rp}
RGND1 0 N002 1e12
RGND2 2 0 1e12
.backanno
.ends
*******
.subckt 0402X7R_33nF_885012205053 1 2 
.param
+ C0=3.300000000000E-08
+ Csat=3.300000000736E-09
+ Vth=1.324368352607E+01
+ Rs=3.148000000000E-02
+ Cs=3.300000000000E-08
+ Ls=2.517000000000E-10
+ Rp=1.000000000000E+10
Cs N002 2 Q=(x*{Csat})+({C0}*{Vth}*arctan(sinh(x/{Vth})))-({Csat}*{Vth}*(arctan(sinh(x/{Vth}))))
Rs N001 1 {Rs}
Ls N001 N002 {Ls}
Rp N002 2 {Rp}
RGND1 0 N002 1e12
RGND2 2 0 1e12
.backanno
.ends
*******
.subckt 0402X7R_47nF_885012205054 1 2 
.param
+ C0=4.700000000000E-08
+ Csat=4.700000054445E-09
+ Vth=1.298708431134E+01
+ Rs=2.098000000000E-02
+ Cs=4.700000000000E-08
+ Ls=1.989100000000E-10
+ Rp=1.000000000000E+10
Cs N002 2 Q=(x*{Csat})+({C0}*{Vth}*arctan(sinh(x/{Vth})))-({Csat}*{Vth}*(arctan(sinh(x/{Vth}))))
Rs N001 1 {Rs}
Ls N001 N002 {Ls}
Rp N002 2 {Rp}
RGND1 0 N002 1e12
RGND2 2 0 1e12
.backanno
.ends
*******
.subckt 0402X7R_22nF_885012205052 1 2 
.param
+ C0=2.200000000000E-08
+ Csat=2.200000064492E-09
+ Vth=1.948848748543E+01
+ Rs=5.480000000000E-02
+ Cs=2.200000000000E-08
+ Ls=1.938300000000E-10
+ Rp=1.000000000000E+10
Cs N002 2 Q=(x*{Csat})+({C0}*{Vth}*arctan(sinh(x/{Vth})))-({Csat}*{Vth}*(arctan(sinh(x/{Vth}))))
Rs N001 1 {Rs}
Ls N001 N002 {Ls}
Rp N002 2 {Rp}
RGND1 0 N002 1e12
RGND2 2 0 1e12
.backanno
.ends
*******
.subckt 0402X7R_10nF_885012205050 1 2 
.param
+ C0=1.000000000000E-08
+ Csat=1.000173837441E-09
+ Vth=3.560632748260E+01
+ Rs=5.920000000000E-02
+ Cs=1.000000000000E-08
+ Ls=1.451500000000E-10
+ Rp=1.000000000000E+10
Cs N002 2 Q=(x*{Csat})+({C0}*{Vth}*arctan(sinh(x/{Vth})))-({Csat}*{Vth}*(arctan(sinh(x/{Vth}))))
Rs N001 1 {Rs}
Ls N001 N002 {Ls}
Rp N002 2 {Rp}
RGND1 0 N002 1e12
RGND2 2 0 1e12
.backanno
.ends
*******
.subckt 0402X7R_15nF_885012205051 1 2 
.param
+ C0=1.500000000000E-08
+ Csat=1.500000008761E-09
+ Vth=1.981256494320E+01
+ Rs=3.784000000000E-02
+ Cs=1.500000000000E-08
+ Ls=2.033500000000E-10
+ Rp=1.000000000000E+10
Cs N002 2 Q=(x*{Csat})+({C0}*{Vth}*arctan(sinh(x/{Vth})))-({Csat}*{Vth}*(arctan(sinh(x/{Vth}))))
Rs N001 1 {Rs}
Ls N001 N002 {Ls}
Rp N002 2 {Rp}
RGND1 0 N002 1e12
RGND2 2 0 1e12
.backanno
.ends
*******
.subckt 0402X5R_100nF_885012105018 1 2 
.param
+ C0=1.000000000000E-07
+ Csat=1.499794474859E-08
+ Vth=8.084749660413E+00
+ Rs=2.612080233400E-02
+ Cs=1.000000000000E-07
+ Ls=3.096711310000E-10
+ Rp=5.000000000000E+09
Cs N002 2 Q=(x*{Csat})+({C0}*{Vth}*arctan(sinh(x/{Vth})))-({Csat}*{Vth}*(arctan(sinh(x/{Vth}))))
Rs N001 1 {Rs}
Ls N001 N002 {Ls}
Rp N002 2 {Rp}
RGND1 0 N002 1e12
RGND2 2 0 1e12
.backanno
.ends
*******
.subckt 0402X7R_100nF_885012205085R 1 2 
.param
+ C0=1.000000000000E-07
+ Csat=2.075039007574E-08
+ Vth=6.848624839360E+00
+ Rs=3.500000000000E-02
+ Cs=1.000000000000E-07
+ Ls=7.655736720000E-10
+ Rp=5.000000000000E+09
Cs N002 2 Q=(x*{Csat})+({C0}*{Vth}*arctan(sinh(x/{Vth})))-({Csat}*{Vth}*(arctan(sinh(x/{Vth}))))
Rs N001 1 {Rs}
Ls N001 N002 {Ls}
Rp N002 2 {Rp}
RGND1 0 N002 1e12
RGND2 2 0 1e12
.backanno
.ends
*******
.subckt 0402X7R_100nF_885012205085 1 2 
.param
+ C0=1.000000000000E-07
+ Csat=2.075040340796E-08
+ Vth=6.848620392254E+00
+ Rs=3.500000000000E-02
+ Cs=1.000000000000E-07
+ Ls=7.655736720000E-10
+ Rp=5.000000000000E+09
Cs N002 2 Q=(x*{Csat})+({C0}*{Vth}*arctan(sinh(x/{Vth})))-({Csat}*{Vth}*(arctan(sinh(x/{Vth}))))
Rs N001 1 {Rs}
Ls N001 N002 {Ls}
Rp N002 2 {Rp}
RGND1 0 N002 1e12
RGND2 2 0 1e12
.backanno
.ends
*******
.subckt 0402X7R_100pF_885012205038 1 2 
.param
+ C0=1.000000000000E-10
+ Csat=1.000000000000E-10
+ Vth=1.000000000000E+00
+ Rs=8.168500000000E-01
+ Cs=1.000000000000E-10
+ Ls=1.555600000000E-10
+ Rp=1.000000000000E+10
Cs N002 2 Q=(x*{Csat})+({C0}*{Vth}*arctan(sinh(x/{Vth})))-({Csat}*{Vth}*(arctan(sinh(x/{Vth}))))
Rs N001 1 {Rs}
Ls N001 N002 {Ls}
Rp N002 2 {Rp}
RGND1 0 N002 1e12
RGND2 2 0 1e12
.backanno
.ends
*******
.subckt 0402X7R_150pF_885012205039 1 2 
.param
+ C0=1.500000000000E-10
+ Csat=1.500000000000E-10
+ Vth=1.000000000000E+00
+ Rs=6.309900000000E-01
+ Cs=1.500000000000E-10
+ Ls=1.291100000000E-10
+ Rp=1.000000000000E+10
Cs N002 2 Q=(x*{Csat})+({C0}*{Vth}*arctan(sinh(x/{Vth})))-({Csat}*{Vth}*(arctan(sinh(x/{Vth}))))
Rs N001 1 {Rs}
Ls N001 N002 {Ls}
Rp N002 2 {Rp}
RGND1 0 N002 1e12
RGND2 2 0 1e12
.backanno
.ends
*******
.subckt 0402X7R_470pF_885012205042 1 2 
.param
+ C0=4.700000000000E-10
+ Csat=4.700000000000E-10
+ Vth=1.000000000000E+00
+ Rs=3.466200000000E-01
+ Cs=4.700000000000E-10
+ Ls=1.704500000000E-10
+ Rp=1.000000000000E+10
Cs N002 2 Q=(x*{Csat})+({C0}*{Vth}*arctan(sinh(x/{Vth})))-({Csat}*{Vth}*(arctan(sinh(x/{Vth}))))
Rs N001 1 {Rs}
Ls N001 N002 {Ls}
Rp N002 2 {Rp}
RGND1 0 N002 1e12
RGND2 2 0 1e12
.backanno
.ends
*******
.subckt 0402NP0_10pF_885012005040 1 2 
.param
+ Rs=4.678484479430E-01
+ Cs=1.000000000000E-11
+ Ls=3.770463810000E-10
+ Rp=1.000000000000E+10
Cs N002 2 {Cs}
Rs N001 1 {Rs}
Ls N001 N002 {Ls}
Rp N002 2 {Rp}
RGND1 0 N002 1e12
RGND2 2 0 1e12
.backanno
.ends
*******
.subckt 0402NP0_15pF_885012005041 1 2 
.param
+ Rs=3.455213971200E-01
+ Cs=1.500000000000E-11
+ Ls=3.314611040000E-10
+ Rp=1.000000000000E+10
Cs N002 2 {Cs}
Rs N001 1 {Rs}
Ls N001 N002 {Ls}
Rp N002 2 {Rp}
RGND1 0 N002 1e12
RGND2 2 0 1e12
.backanno
.ends
*******
.subckt 0402NP0_22pF_885012005042 1 2 
.param
+ Rs=2.852827067640E-01
+ Cs=2.200000000000E-11
+ Ls=3.082070760000E-10
+ Rp=1.000000000000E+10
Cs N002 2 {Cs}
Rs N001 1 {Rs}
Ls N001 N002 {Ls}
Rp N002 2 {Rp}
RGND1 0 N002 1e12
RGND2 2 0 1e12
.backanno
.ends
*******
.subckt 0402NP0_33pF_885012005043 1 2 
.param
+ Rs=2.302319568820E-01
+ Cs=3.300000000000E-11
+ Ls=2.968751490000E-10
+ Rp=1.000000000000E+10
Cs N002 2 {Cs}
Rs N001 1 {Rs}
Ls N001 N002 {Ls}
Rp N002 2 {Rp}
RGND1 0 N002 1e12
RGND2 2 0 1e12
.backanno
.ends
*******
.subckt 0402NP0_47pF_885012005044 1 2 
.param
+ Rs=2.034551756830E-01
+ Cs=4.700000000000E-11
+ Ls=3.465374760000E-10
+ Rp=1.000000000000E+10
Cs N002 2 {Cs}
Rs N001 1 {Rs}
Ls N001 N002 {Ls}
Rp N002 2 {Rp}
RGND1 0 N002 1e12
RGND2 2 0 1e12
.backanno
.ends
*******
.subckt 0402NP0_68pF_885012005045 1 2 
.param
+ Rs=1.878147369700E-01
+ Cs=6.800000000000E-11
+ Ls=3.220279080000E-10
+ Rp=1.000000000000E+10
Cs N002 2 {Cs}
Rs N001 1 {Rs}
Ls N001 N002 {Ls}
Rp N002 2 {Rp}
RGND1 0 N002 1e12
RGND2 2 0 1e12
.backanno
.ends
*******
.subckt 0402NP0_100pF_885012005046 1 2 
.param
+ Rs=7.592173452080E-02
+ Cs=1.000000000000E-10
+ Ls=3.949229660000E-10
+ Rp=1.000000000000E+10
Cs N002 2 {Cs}
Rs N001 1 {Rs}
Ls N001 N002 {Ls}
Rp N002 2 {Rp}
RGND1 0 N002 1e12
RGND2 2 0 1e12
.backanno
.ends
*******
.subckt 0402NP0_150pF_885012005047 1 2 
.param
+ Rs=1.122460461380E-01
+ Cs=1.500000000000E-10
+ Ls=2.155494730000E-10
+ Rp=1.000000000000E+10
Cs N002 2 {Cs}
Rs N001 1 {Rs}
Ls N001 N002 {Ls}
Rp N002 2 {Rp}
RGND1 0 N002 1e12
RGND2 2 0 1e12
.backanno
.ends
*******
.subckt 0402NP0_220pF_885012005048 1 2 
.param
+ Rs=1.042325151930E-01
+ Cs=2.200000000000E-10
+ Ls=1.921729890000E-10
+ Rp=1.000000000000E+10
Cs N002 2 {Cs}
Rs N001 1 {Rs}
Ls N001 N002 {Ls}
Rp N002 2 {Rp}
RGND1 0 N002 1e12
RGND2 2 0 1e12
.backanno
.ends
*******
.subckt 0603X7R_6-8nF_885012206064 1 2 
.param
+ C0=6.800000000000E-09
+ Csat=6.801228579359E-10
+ Vth=1.123419303470E+02
+ Rs=8.487000000000E-02
+ Cs=6.800000000000E-09
+ Ls=3.684900000000E-10
+ Rp=1.000000000000E+10
Cs N002 2 Q=(x*{Csat})+({C0}*{Vth}*arctan(sinh(x/{Vth})))-({Csat}*{Vth}*(arctan(sinh(x/{Vth}))))
Rs N001 1 {Rs}
Ls N001 N002 {Ls}
Rp N002 2 {Rp}
RGND1 0 N002 1e12
RGND2 2 0 1e12
.backanno
.ends
*******
.subckt 0603X7R_10nF_885012206065 1 2 
.param
+ C0=1.000000000000E-08
+ Csat=1.079120783938E-09
+ Vth=9.128436606748E+01
+ Rs=5.893000000000E-02
+ Cs=1.000000000000E-08
+ Ls=3.791600000000E-10
+ Rp=1.000000000000E+10
Cs N002 2 Q=(x*{Csat})+({C0}*{Vth}*arctan(sinh(x/{Vth})))-({Csat}*{Vth}*(arctan(sinh(x/{Vth}))))
Rs N001 1 {Rs}
Ls N001 N002 {Ls}
Rp N002 2 {Rp}
RGND1 0 N002 1e12
RGND2 2 0 1e12
.backanno
.ends
*******
.subckt 0603X7R_15nF_885012206066 1 2 
.param
+ C0=1.500000000000E-08
+ Csat=1.506013659340E-09
+ Vth=8.858466334826E+01
+ Rs=4.730000000000E-02
+ Cs=1.500000000000E-08
+ Ls=3.009300000000E-10
+ Rp=1.000000000000E+10
Cs N002 2 Q=(x*{Csat})+({C0}*{Vth}*arctan(sinh(x/{Vth})))-({Csat}*{Vth}*(arctan(sinh(x/{Vth}))))
Rs N001 1 {Rs}
Ls N001 N002 {Ls}
Rp N002 2 {Rp}
RGND1 0 N002 1e12
RGND2 2 0 1e12
.backanno
.ends
*******
.subckt 0603X7R_22nF_885012206067 1 2 
.param
+ C0=2.200000000000E-08
+ Csat=2.200073604339E-09
+ Vth=7.681358407420E+01
+ Rs=3.101000000000E-02
+ Cs=2.200000000000E-08
+ Ls=2.804800000000E-10
+ Rp=1.000000000000E+10
Cs N002 2 Q=(x*{Csat})+({C0}*{Vth}*arctan(sinh(x/{Vth})))-({Csat}*{Vth}*(arctan(sinh(x/{Vth}))))
Rs N001 1 {Rs}
Ls N001 N002 {Ls}
Rp N002 2 {Rp}
RGND1 0 N002 1e12
RGND2 2 0 1e12
.backanno
.ends
*******
.subckt 0603X7R_47nF_885012206069 1 2 
.param
+ C0=4.700000000000E-08
+ Csat=4.704926763558E-09
+ Vth=3.546340309473E+01
+ Rs=1.832000000000E-02
+ Cs=4.700000000000E-08
+ Ls=2.418000000000E-10
+ Rp=1.000000000000E+10
Cs N002 2 Q=(x*{Csat})+({C0}*{Vth}*arctan(sinh(x/{Vth})))-({Csat}*{Vth}*(arctan(sinh(x/{Vth}))))
Rs N001 1 {Rs}
Ls N001 N002 {Ls}
Rp N002 2 {Rp}
RGND1 0 N002 1e12
RGND2 2 0 1e12
.backanno
.ends
*******
.subckt 0603X7R_33nF_885012206068 1 2 
.param
+ C0=3.300000000000E-08
+ Csat=3.300414938627E-09
+ Vth=3.448136273083E+01
+ Rs=2.320000000000E-02
+ Cs=3.300000000000E-08
+ Ls=3.308900000000E-10
+ Rp=1.000000000000E+10
Cs N002 2 Q=(x*{Csat})+({C0}*{Vth}*arctan(sinh(x/{Vth})))-({Csat}*{Vth}*(arctan(sinh(x/{Vth}))))
Rs N001 1 {Rs}
Ls N001 N002 {Ls}
Rp N002 2 {Rp}
RGND1 0 N002 1e12
RGND2 2 0 1e12
.backanno
.ends
*******
.subckt 0603X7R_68nF_885012206070 1 2 
.param
+ C0=6.800000000000E-08
+ Csat=6.800007973651E-09
+ Vth=2.202176030183E+01
+ Rs=1.712000000000E-02
+ Cs=6.800000000000E-08
+ Ls=3.068200000000E-10
+ Rp=7.400000000000E+09
Cs N002 2 Q=(x*{Csat})+({C0}*{Vth}*arctan(sinh(x/{Vth})))-({Csat}*{Vth}*(arctan(sinh(x/{Vth}))))
Rs N001 1 {Rs}
Ls N001 N002 {Ls}
Rp N002 2 {Rp}
RGND1 0 N002 1e12
RGND2 2 0 1e12
.backanno
.ends
*******
.subckt 0603X7R_100nF_885012206071R 1 2 
.param
+ C0=1.000000000000E-07
+ Csat=1.000000010629E-08
+ Vth=2.131548237754E+01
+ Rs=1.893655215510E-02
+ Cs=1.000000000000E-07
+ Ls=4.426685520000E-10
+ Rp=5.000000000000E+09
Cs N002 2 Q=(x*{Csat})+({C0}*{Vth}*arctan(sinh(x/{Vth})))-({Csat}*{Vth}*(arctan(sinh(x/{Vth}))))
Rs N001 1 {Rs}
Ls N001 N002 {Ls}
Rp N002 2 {Rp}
RGND1 0 N002 1e12
RGND2 2 0 1e12
.backanno
.ends
*******
.subckt 0603X7R_100nF_885012206071 1 2 
.param
+ C0=1.000000000000E-07
+ Csat=1.000000010210E-08
+ Vth=2.131548305111E+01
+ Rs=2.500000000000E-02
+ Cs=1.000000000000E-07
+ Ls=8.000000000000E-10
+ Rp=5.000000000000E+09
Cs N002 2 Q=(x*{Csat})+({C0}*{Vth}*arctan(sinh(x/{Vth})))-({Csat}*{Vth}*(arctan(sinh(x/{Vth}))))
Rs N001 1 {Rs}
Ls N001 N002 {Ls}
Rp N002 2 {Rp}
RGND1 0 N002 1e12
RGND2 2 0 1e12
.backanno
.ends
*******
.subckt 0603X7R_220nF_885012206073 1 2 
.param
+ C0=2.200000000000E-07
+ Csat=2.200006714026E-08
+ Vth=2.025341737772E+01
+ Rs=1.098000942430E-02
+ Cs=2.200000000000E-07
+ Ls=4.081004660000E-10
+ Rp=2.300000000000E+09
Cs N002 2 Q=(x*{Csat})+({C0}*{Vth}*arctan(sinh(x/{Vth})))-({Csat}*{Vth}*(arctan(sinh(x/{Vth}))))
Rs N001 1 {Rs}
Ls N001 N002 {Ls}
Rp N002 2 {Rp}
RGND1 0 N002 1e12
RGND2 2 0 1e12
.backanno
.ends
*******
.subckt 0603X5R_220nF_885012106019 1 2 
.param
+ C0=2.200000000000E-07
+ Csat=2.200000013549E-08
+ Vth=2.018653768076E+01
+ Rs=1.089611821850E-02
+ Cs=2.200000000000E-07
+ Ls=2.507890510000E-10
+ Rp=2.300000000000E+09
Cs N002 2 Q=(x*{Csat})+({C0}*{Vth}*arctan(sinh(x/{Vth})))-({Csat}*{Vth}*(arctan(sinh(x/{Vth}))))
Rs N001 1 {Rs}
Ls N001 N002 {Ls}
Rp N002 2 {Rp}
RGND1 0 N002 1e12
RGND2 2 0 1e12
.backanno
.ends
*******
.subckt 0603X7R_150nF_885012206072 1 2 
.param
+ C0=1.500000000000E-07
+ Csat=1.500000064488E-08
+ Vth=2.051219575759E+01
+ Rs=1.491819342380E-02
+ Cs=1.500000000000E-07
+ Ls=3.311985630000E-10
+ Rp=3.300000000000E+09
Cs N002 2 Q=(x*{Csat})+({C0}*{Vth}*arctan(sinh(x/{Vth})))-({Csat}*{Vth}*(arctan(sinh(x/{Vth}))))
Rs N001 1 {Rs}
Ls N001 N002 {Ls}
Rp N002 2 {Rp}
RGND1 0 N002 1e12
RGND2 2 0 1e12
.backanno
.ends
*******
.subckt 0603X7R_1uF_885012206076 1 2 
.param
+ C0=1.000000000000E-06
+ Csat=1.418371779796E-07
+ Vth=6.520885711453E+00
+ Rs=7.344830767600E-03
+ Cs=1.000000000000E-06
+ Ls=4.755033870000E-10
+ Rp=5.000000000000E+08
Cs N002 2 Q=(x*{Csat})+({C0}*{Vth}*arctan(sinh(x/{Vth})))-({Csat}*{Vth}*(arctan(sinh(x/{Vth}))))
Rs N001 1 {Rs}
Ls N001 N002 {Ls}
Rp N002 2 {Rp}
RGND1 0 N002 1e12
RGND2 2 0 1e12
.backanno
.ends
*******
.subckt 0603X7R_330nF_885012206074 1 2 
.param
+ C0=3.300000000000E-07
+ Csat=3.300000147976E-08
+ Vth=1.119148627840E+01
+ Rs=1.181505275690E-02
+ Cs=3.300000000000E-07
+ Ls=4.486235460000E-10
+ Rp=1.500000000000E+09
Cs N002 2 Q=(x*{Csat})+({C0}*{Vth}*arctan(sinh(x/{Vth})))-({Csat}*{Vth}*(arctan(sinh(x/{Vth}))))
Rs N001 1 {Rs}
Ls N001 N002 {Ls}
Rp N002 2 {Rp}
RGND1 0 N002 1e12
RGND2 2 0 1e12
.backanno
.ends
*******
.subckt 0603X5R_470nF_885012106020 1 2 
.param
+ C0=4.700000000000E-07
+ Csat=4.700067258449E-08
+ Vth=1.124497441089E+01
+ Rs=9.768459345890E-03
+ Cs=4.700000000000E-07
+ Ls=2.506829760000E-10
+ Rp=1.100000000000E+09
Cs N002 2 Q=(x*{Csat})+({C0}*{Vth}*arctan(sinh(x/{Vth})))-({Csat}*{Vth}*(arctan(sinh(x/{Vth}))))
Rs N001 1 {Rs}
Ls N001 N002 {Ls}
Rp N002 2 {Rp}
RGND1 0 N002 1e12
RGND2 2 0 1e12
.backanno
.ends
*******
.subckt 0603X7R_470nF_885012206075 1 2 
.param
+ C0=4.700000000000E-07
+ Csat=5.507829688238E-08
+ Vth=1.100103390495E+01
+ Rs=1.008163593490E-02
+ Cs=4.700000000000E-07
+ Ls=4.140553190000E-10
+ Rp=1.100000000000E+09
Cs N002 2 Q=(x*{Csat})+({C0}*{Vth}*arctan(sinh(x/{Vth})))-({Csat}*{Vth}*(arctan(sinh(x/{Vth}))))
Rs N001 1 {Rs}
Ls N001 N002 {Ls}
Rp N002 2 {Rp}
RGND1 0 N002 1e12
RGND2 2 0 1e12
.backanno
.ends
*******
.subckt 0603X7R_470nF_885012206075R 1 2 
.param
+ C0=4.700000000000E-07
+ Csat=5.507516505492E-08
+ Vth=1.100115689980E+01
+ Rs=1.008163593490E-02
+ Cs=4.700000000000E-07
+ Ls=4.140553190000E-10
+ Rp=1.100000000000E+09
Cs N002 2 Q=(x*{Csat})+({C0}*{Vth}*arctan(sinh(x/{Vth})))-({Csat}*{Vth}*(arctan(sinh(x/{Vth}))))
Rs N001 1 {Rs}
Ls N001 N002 {Ls}
Rp N002 2 {Rp}
RGND1 0 N002 1e12
RGND2 2 0 1e12
.backanno
.ends
*******
.subckt 0603X5R_1uF_885012106022 1 2 
.param
+ C0=1.000000000000E-06
+ Csat=1.048649707413E-07
+ Vth=5.691944614552E+00
+ Rs=8.578610358670E-03
+ Cs=1.000000000000E-06
+ Ls=3.034972790000E-10
+ Rp=5.000000000000E+08
Cs N002 2 Q=(x*{Csat})+({C0}*{Vth}*arctan(sinh(x/{Vth})))-({Csat}*{Vth}*(arctan(sinh(x/{Vth}))))
Rs N001 1 {Rs}
Ls N001 N002 {Ls}
Rp N002 2 {Rp}
RGND1 0 N002 1e12
RGND2 2 0 1e12
.backanno
.ends
*******
.subckt 0603X5R_680nF_885012106021 1 2 
.param
+ C0=6.800000000000E-07
+ Csat=7.438373690082E-08
+ Vth=5.864181941727E+00
+ Rs=9.913196989450E-03
+ Cs=6.800000000000E-07
+ Ls=3.551754180000E-10
+ Rp=7.000000000000E+08
Cs N002 2 Q=(x*{Csat})+({C0}*{Vth}*arctan(sinh(x/{Vth})))-({Csat}*{Vth}*(arctan(sinh(x/{Vth}))))
Rs N001 1 {Rs}
Ls N001 N002 {Ls}
Rp N002 2 {Rp}
RGND1 0 N002 1e12
RGND2 2 0 1e12
.backanno
.ends
*******
.subckt 0603X7R_100pF_885012206053 1 2 
.param
+ C0=1.000000000000E-10
+ Csat=1.000000000000E-10
+ Vth=1.000000000000E+00
+ Rs=9.100300000000E-01
+ Cs=1.000000000000E-10
+ Ls=2.450900000000E-10
+ Rp=1.000000000000E+10
Cs N002 2 Q=(x*{Csat})+({C0}*{Vth}*arctan(sinh(x/{Vth})))-({Csat}*{Vth}*(arctan(sinh(x/{Vth}))))
Rs N001 1 {Rs}
Ls N001 N002 {Ls}
Rp N002 2 {Rp}
RGND1 0 N002 1e12
RGND2 2 0 1e12
.backanno
.ends
*******
.subckt 0603X7R_150pF_885012206054 1 2 
.param
+ C0=1.500000000000E-10
+ Csat=1.500000000000E-10
+ Vth=1.000000000000E+00
+ Rs=6.838500000000E-01
+ Cs=1.500000000000E-10
+ Ls=2.901800000000E-10
+ Rp=1.000000000000E+10
Cs N002 2 Q=(x*{Csat})+({C0}*{Vth}*arctan(sinh(x/{Vth})))-({Csat}*{Vth}*(arctan(sinh(x/{Vth}))))
Rs N001 1 {Rs}
Ls N001 N002 {Ls}
Rp N002 2 {Rp}
RGND1 0 N002 1e12
RGND2 2 0 1e12
.backanno
.ends
*******
.subckt 0603X7R_220pF_885012206055 1 2 
.param
+ C0=2.200000000000E-10
+ Csat=2.200000000000E-10
+ Vth=1.000000000000E+00
+ Rs=5.863100000000E-01
+ Cs=2.200000000000E-10
+ Ls=3.303700000000E-10
+ Rp=1.000000000000E+10
Cs N002 2 Q=(x*{Csat})+({C0}*{Vth}*arctan(sinh(x/{Vth})))-({Csat}*{Vth}*(arctan(sinh(x/{Vth}))))
Rs N001 1 {Rs}
Ls N001 N002 {Ls}
Rp N002 2 {Rp}
RGND1 0 N002 1e12
RGND2 2 0 1e12
.backanno
.ends
*******
.subckt 0603X7R_330pF_885012206056 1 2 
.param
+ C0=3.300000000000E-10
+ Csat=3.300000000000E-10
+ Vth=1.000000000000E+00
+ Rs=4.240100000000E-01
+ Cs=3.300000000000E-10
+ Ls=3.312900000000E-10
+ Rp=1.000000000000E+10
Cs N002 2 Q=(x*{Csat})+({C0}*{Vth}*arctan(sinh(x/{Vth})))-({Csat}*{Vth}*(arctan(sinh(x/{Vth}))))
Rs N001 1 {Rs}
Ls N001 N002 {Ls}
Rp N002 2 {Rp}
RGND1 0 N002 1e12
RGND2 2 0 1e12
.backanno
.ends
*******
.subckt 0603X7R_470pF_885012206057 1 2 
.param
+ C0=4.700000000000E-10
+ Csat=4.700000000000E-10
+ Vth=1.000000000000E+00
+ Rs=3.459400000000E-01
+ Cs=4.700000000000E-10
+ Ls=3.308400000000E-10
+ Rp=1.000000000000E+10
Cs N002 2 Q=(x*{Csat})+({C0}*{Vth}*arctan(sinh(x/{Vth})))-({Csat}*{Vth}*(arctan(sinh(x/{Vth}))))
Rs N001 1 {Rs}
Ls N001 N002 {Ls}
Rp N002 2 {Rp}
RGND1 0 N002 1e12
RGND2 2 0 1e12
.backanno
.ends
*******
.subckt 0603X7R_680pF_885012206058 1 2 
.param
+ C0=6.800000000000E-10
+ Csat=6.800000000000E-10
+ Vth=1.000000000000E+00
+ Rs=2.979600000000E-01
+ Cs=6.800000000000E-10
+ Ls=3.737800000000E-10
+ Rp=1.000000000000E+10
Cs N002 2 Q=(x*{Csat})+({C0}*{Vth}*arctan(sinh(x/{Vth})))-({Csat}*{Vth}*(arctan(sinh(x/{Vth}))))
Rs N001 1 {Rs}
Ls N001 N002 {Ls}
Rp N002 2 {Rp}
RGND1 0 N002 1e12
RGND2 2 0 1e12
.backanno
.ends
*******
.subckt 0603X7R_1nF_885012206059 1 2 
.param
+ C0=1.000000000000E-09
+ Csat=1.000000000000E-09
+ Vth=1.000000000000E+00
+ Rs=2.213600000000E-01
+ Cs=1.000000000000E-09
+ Ls=3.625300000000E-10
+ Rp=1.000000000000E+10
Cs N002 2 Q=(x*{Csat})+({C0}*{Vth}*arctan(sinh(x/{Vth})))-({Csat}*{Vth}*(arctan(sinh(x/{Vth}))))
Rs N001 1 {Rs}
Ls N001 N002 {Ls}
Rp N002 2 {Rp}
RGND1 0 N002 1e12
RGND2 2 0 1e12
.backanno
.ends
*******
.subckt 0603X7R_1-5nF_885012206060 1 2 
.param
+ C0=1.500000000000E-09
+ Csat=1.500000000000E-09
+ Vth=1.000000000000E+00
+ Rs=1.884200000000E-01
+ Cs=1.500000000000E-09
+ Ls=3.383200000000E-10
+ Rp=1.000000000000E+10
Cs N002 2 Q=(x*{Csat})+({C0}*{Vth}*arctan(sinh(x/{Vth})))-({Csat}*{Vth}*(arctan(sinh(x/{Vth}))))
Rs N001 1 {Rs}
Ls N001 N002 {Ls}
Rp N002 2 {Rp}
RGND1 0 N002 1e12
RGND2 2 0 1e12
.backanno
.ends
*******
.subckt 0603X7R_2-2nF_885012206061 1 2 
.param
+ C0=2.200000000000E-09
+ Csat=2.200000000000E-09
+ Vth=1.000000000000E+00
+ Rs=1.273100000000E-01
+ Cs=2.200000000000E-09
+ Ls=3.229300000000E-10
+ Rp=1.000000000000E+10
Cs N002 2 Q=(x*{Csat})+({C0}*{Vth}*arctan(sinh(x/{Vth})))-({Csat}*{Vth}*(arctan(sinh(x/{Vth}))))
Rs N001 1 {Rs}
Ls N001 N002 {Ls}
Rp N002 2 {Rp}
RGND1 0 N002 1e12
RGND2 2 0 1e12
.backanno
.ends
*******
.subckt 0603X7R_3-3nF_885012206062 1 2 
.param
+ C0=3.300000000000E-09
+ Csat=3.300000000000E-09
+ Vth=1.000000000000E+00
+ Rs=9.865000000000E-02
+ Cs=3.300000000000E-09
+ Ls=3.316000000000E-10
+ Rp=1.000000000000E+10
Cs N002 2 Q=(x*{Csat})+({C0}*{Vth}*arctan(sinh(x/{Vth})))-({Csat}*{Vth}*(arctan(sinh(x/{Vth}))))
Rs N001 1 {Rs}
Ls N001 N002 {Ls}
Rp N002 2 {Rp}
RGND1 0 N002 1e12
RGND2 2 0 1e12
.backanno
.ends
*******
.subckt 0603X7R_4-7nF_885012206063 1 2 
.param
+ C0=4.700000000000E-09
+ Csat=4.700000000000E-09
+ Vth=1.000000000000E+00
+ Rs=8.147000000000E-02
+ Cs=4.700000000000E-09
+ Ls=2.893000000000E-10
+ Rp=1.000000000000E+10
Cs N002 2 Q=(x*{Csat})+({C0}*{Vth}*arctan(sinh(x/{Vth})))-({Csat}*{Vth}*(arctan(sinh(x/{Vth}))))
Rs N001 1 {Rs}
Ls N001 N002 {Ls}
Rp N002 2 {Rp}
RGND1 0 N002 1e12
RGND2 2 0 1e12
.backanno
.ends
*******
.subckt 0603NP0_4-7pF_885012006030 1 2 
.param
+ Rs=2.912472757800E-01
+ Cs=4.700000000000E-12
+ Ls=4.297054180000E-10
+ Rp=1.000000000000E+10
Cs N002 2 {Cs}
Rs N001 1 {Rs}
Ls N001 N002 {Ls}
Rp N002 2 {Rp}
RGND1 0 N002 1e12
RGND2 2 0 1e12
.backanno
.ends
*******
.subckt 0603NP0_6-8pF_885012006031 1 2 
.param
+ Rs=2.990244370130E-01
+ Cs=6.800000000000E-12
+ Ls=4.580947400000E-10
+ Rp=1.000000000000E+10
Cs N002 2 {Cs}
Rs N001 1 {Rs}
Ls N001 N002 {Ls}
Rp N002 2 {Rp}
RGND1 0 N002 1e12
RGND2 2 0 1e12
.backanno
.ends
*******
.subckt 0603NP0_10pF_885012006032 1 2 
.param
+ Rs=4.457742013360E-01
+ Cs=1.000000000000E-11
+ Ls=4.280738440000E-10
+ Rp=1.000000000000E+10
Cs N002 2 {Cs}
Rs N001 1 {Rs}
Ls N001 N002 {Ls}
Rp N002 2 {Rp}
RGND1 0 N002 1e12
RGND2 2 0 1e12
.backanno
.ends
*******
.subckt 0603NP0_15pF_885012006033 1 2 
.param
+ Rs=3.531199054860E-01
+ Cs=1.500000000000E-11
+ Ls=4.352669750000E-10
+ Rp=1.000000000000E+10
Cs N002 2 {Cs}
Rs N001 1 {Rs}
Ls N001 N002 {Ls}
Rp N002 2 {Rp}
RGND1 0 N002 1e12
RGND2 2 0 1e12
.backanno
.ends
*******
.subckt 0603NP0_22pF_885012006034 1 2 
.param
+ Rs=3.524813223160E-01
+ Cs=2.200000000000E-11
+ Ls=5.882034400000E-10
+ Rp=1.000000000000E+10
Cs N002 2 {Cs}
Rs N001 1 {Rs}
Ls N001 N002 {Ls}
Rp N002 2 {Rp}
RGND1 0 N002 1e12
RGND2 2 0 1e12
.backanno
.ends
*******
.subckt 0603NP0_33pF_885012006035 1 2 
.param
+ Rs=3.059199669410E-01
+ Cs=3.300000000000E-11
+ Ls=5.257130340000E-10
+ Rp=1.000000000000E+10
Cs N002 2 {Cs}
Rs N001 1 {Rs}
Ls N001 N002 {Ls}
Rp N002 2 {Rp}
RGND1 0 N002 1e12
RGND2 2 0 1e12
.backanno
.ends
*******
.subckt 0603NP0_47pF_885012006036 1 2 
.param
+ Rs=6.225591461200E-02
+ Cs=4.700000000000E-11
+ Ls=4.243286230000E-10
+ Rp=1.000000000000E+10
Cs N002 2 {Cs}
Rs N001 1 {Rs}
Ls N001 N002 {Ls}
Rp N002 2 {Rp}
RGND1 0 N002 1e12
RGND2 2 0 1e12
.backanno
.ends
*******
.subckt 0603NP0_68pF_885012006037 1 2 
.param
+ Rs=1.596729102970E-01
+ Cs=6.800000000000E-11
+ Ls=6.462207870000E-10
+ Rp=1.000000000000E+10
Cs N002 2 {Cs}
Rs N001 1 {Rs}
Ls N001 N002 {Ls}
Rp N002 2 {Rp}
RGND1 0 N002 1e12
RGND2 2 0 1e12
.backanno
.ends
*******
.subckt 0603NP0_100pF_885012006038 1 2 
.param
+ Rs=1.301304952340E-01
+ Cs=1.000000000000E-10
+ Ls=5.897932300000E-10
+ Rp=1.000000000000E+10
Cs N002 2 {Cs}
Rs N001 1 {Rs}
Ls N001 N002 {Ls}
Rp N002 2 {Rp}
RGND1 0 N002 1e12
RGND2 2 0 1e12
.backanno
.ends
*******
.subckt 0603NP0_150pF_885012006039 1 2 
.param
+ Rs=9.715489364700E-02
+ Cs=1.500000000000E-10
+ Ls=5.825988280000E-10
+ Rp=1.000000000000E+10
Cs N002 2 {Cs}
Rs N001 1 {Rs}
Ls N001 N002 {Ls}
Rp N002 2 {Rp}
RGND1 0 N002 1e12
RGND2 2 0 1e12
.backanno
.ends
*******
.subckt 0603NP0_220pF_885012006040 1 2 
.param
+ Rs=1.117484856310E-01
+ Cs=2.200000000000E-10
+ Ls=6.026280090000E-10
+ Rp=1.000000000000E+10
Cs N002 2 {Cs}
Rs N001 1 {Rs}
Ls N001 N002 {Ls}
Rp N002 2 {Rp}
RGND1 0 N002 1e12
RGND2 2 0 1e12
.backanno
.ends
*******
.subckt 0603NP0_330pF_885012006041 1 2 
.param
+ Rs=8.291409196350E-02
+ Cs=3.300000000000E-10
+ Ls=3.851738970000E-10
+ Rp=1.000000000000E+10
Cs N002 2 {Cs}
Rs N001 1 {Rs}
Ls N001 N002 {Ls}
Rp N002 2 {Rp}
RGND1 0 N002 1e12
RGND2 2 0 1e12
.backanno
.ends
*******
.subckt 0603NP0_470pF_885012006042 1 2 
.param
+ Rs=6.471785537880E-02
+ Cs=4.700000000000E-10
+ Ls=3.679317790000E-10
+ Rp=1.000000000000E+10
Cs N002 2 {Cs}
Rs N001 1 {Rs}
Ls N001 N002 {Ls}
Rp N002 2 {Rp}
RGND1 0 N002 1e12
RGND2 2 0 1e12
.backanno
.ends
*******
.subckt 0603NP0_680pF_885012006043 1 2 
.param
+ Rs=6.410291324150E-02
+ Cs=6.800000000000E-10
+ Ls=3.057635840000E-10
+ Rp=1.000000000000E+10
Cs N002 2 {Cs}
Rs N001 1 {Rs}
Ls N001 N002 {Ls}
Rp N002 2 {Rp}
RGND1 0 N002 1e12
RGND2 2 0 1e12
.backanno
.ends
*******
.subckt 0603NP0_1nF_885012006044 1 2 
.param
+ Rs=4.194517014090E-02
+ Cs=1.000000000000E-09
+ Ls=4.481709610000E-10
+ Rp=1.000000000000E+10
Cs N002 2 {Cs}
Rs N001 1 {Rs}
Ls N001 N002 {Ls}
Rp N002 2 {Rp}
RGND1 0 N002 1e12
RGND2 2 0 1e12
.backanno
.ends
*******
.subckt 0805X7R_6-8nF_885012207065 1 2 
.param
+ C0=6.800000000000E-09
+ Csat=8.246534430089E-10
+ Vth=1.033176836071E+02
+ Rs=8.276000000000E-02
+ Cs=6.800000000000E-09
+ Ls=3.201500000000E-10
+ Rp=1.000000000000E+10
Cs N002 2 Q=(x*{Csat})+({C0}*{Vth}*arctan(sinh(x/{Vth})))-({Csat}*{Vth}*(arctan(sinh(x/{Vth}))))
Rs N001 1 {Rs}
Ls N001 N002 {Ls}
Rp N002 2 {Rp}
RGND1 0 N002 1e12
RGND2 2 0 1e12
.backanno
.ends
*******
.subckt 0805X7R_15nF_885012207067 1 2 
.param
+ C0=1.500000000000E-08
+ Csat=1.500891027335E-09
+ Vth=7.999286324252E+01
+ Rs=5.208000000000E-02
+ Cs=1.500000000000E-08
+ Ls=3.139900000000E-10
+ Rp=1.000000000000E+10
Cs N002 2 Q=(x*{Csat})+({C0}*{Vth}*arctan(sinh(x/{Vth})))-({Csat}*{Vth}*(arctan(sinh(x/{Vth}))))
Rs N001 1 {Rs}
Ls N001 N002 {Ls}
Rp N002 2 {Rp}
RGND1 0 N002 1e12
RGND2 2 0 1e12
.backanno
.ends
*******
.subckt 0805X7R_10nF_885012207066 1 2 
.param
+ C0=1.000000000000E-08
+ Csat=1.000003751482E-09
+ Vth=8.248213532915E+01
+ Rs=6.408000000000E-02
+ Cs=1.000000000000E-08
+ Ls=2.943000000000E-10
+ Rp=1.000000000000E+10
Cs N002 2 Q=(x*{Csat})+({C0}*{Vth}*arctan(sinh(x/{Vth})))-({Csat}*{Vth}*(arctan(sinh(x/{Vth}))))
Rs N001 1 {Rs}
Ls N001 N002 {Ls}
Rp N002 2 {Rp}
RGND1 0 N002 1e12
RGND2 2 0 1e12
.backanno
.ends
*******
.subckt 0805X7R_33nF_885012207069 1 2 
.param
+ C0=3.300000000000E-08
+ Csat=3.300028028462E-09
+ Vth=7.592311795323E+01
+ Rs=3.304843738840E-02
+ Cs=3.300000000000E-08
+ Ls=4.100000000000E-10
+ Rp=1.000000000000E+10