**************************************************
* Manufacturer:          Würth Elektronik
* Kinds:                 MLCCs Capacitors
* Matchcode:             WCAP-CSGP 10V DC bias
* Library Type:          LTspice
* Version:               rev22c
* Created/modified by:   Richard
* Date and Time:         2022/10/14
* Team:                  eiSos EDA Service  
* Contact:               libraries@we-online.com
**************************************************
* Copyright(C) 2022 Würth Elektronik eiSos GmbH & Co. KG
* All Rights Reserved.
**************************************************
* Disclaimer: While Würth Elektronik eiSos has made every reasonable effort to ensure the accuracy
* of the simulation models provided, Würth Elektronik eiSos does not guarantee the exemption of error on
* the simulation models, nor does Würth Elektronik eiSos guarantee that the simulation model is current.
* Würth Elektronik eiSos reserves the right to make any adjustments at any time without notice.
* Würth Elektronik eiSos expressly disclaims all implied warranties regarding this simulation model.
**************************************************
.subckt 0402X7R_15nF_885012205013 1 2 
.param
+ C0=1.500000000000E-08
+ Csat=1.501720901893E-09
+ Vth=2.923203913619E+01
+ Rs=3.039000000000E-02
+ Cs=1.500000000000E-08
+ Ls=2.258300000000E-10
+ Rp=1.000000000000E+10
Cs N002 2 Q=(x*{Csat})+({C0}*{Vth}*arctan(sinh(x/{Vth})))-({Csat}*{Vth}*(arctan(sinh(x/{Vth}))))
Rs N001 1 {Rs}
Ls N001 N002 {Ls}
Rp N002 2 {Rp}
RGND1 0 N002 1e12
RGND2 2 0 1e12
.backanno
.ends
*******
.subckt 0402X7R_22nF_885012205014 1 2 
.param
+ C0=2.200000000000E-08
+ Csat=2.200182778725E-09
+ Vth=3.101257057855E+01
+ Rs=1.645000000000E-02
+ Cs=2.200000000000E-08
+ Ls=2.004900000000E-10
+ Rp=1.000000000000E+10
Cs N002 2 Q=(x*{Csat})+({C0}*{Vth}*arctan(sinh(x/{Vth})))-({Csat}*{Vth}*(arctan(sinh(x/{Vth}))))
Rs N001 1 {Rs}
Ls N001 N002 {Ls}
Rp N002 2 {Rp}
RGND1 0 N002 1e12
RGND2 2 0 1e12
.backanno
.ends
*******
.subckt 0402X5R_68nF_885012105009 1 2 
.param
+ C0=6.800000000000E-08
+ Csat=6.828098166169E-09
+ Vth=1.213115098109E+01
+ Rs=6.387045194170E-02
+ Cs=6.800000000000E-08
+ Ls=2.206308670000E-10
+ Rp=7.400000000000E+09
Cs N002 2 Q=(x*{Csat})+({C0}*{Vth}*arctan(sinh(x/{Vth})))-({Csat}*{Vth}*(arctan(sinh(x/{Vth}))))
Rs N001 1 {Rs}
Ls N001 N002 {Ls}
Rp N002 2 {Rp}
RGND1 0 N002 1e12
RGND2 2 0 1e12
.backanno
.ends
*******
.subckt 0402X7R_68nF_885012205017 1 2 
.param
+ C0=6.800000000000E-08
+ Csat=6.800022590178E-09
+ Vth=1.131842007289E+01
+ Rs=1.539000000000E-02
+ Cs=6.800000000000E-08
+ Ls=2.304400000000E-10
+ Rp=7.400000000000E+09
Cs N002 2 Q=(x*{Csat})+({C0}*{Vth}*arctan(sinh(x/{Vth})))-({Csat}*{Vth}*(arctan(sinh(x/{Vth}))))
Rs N001 1 {Rs}
Ls N001 N002 {Ls}
Rp N002 2 {Rp}
RGND1 0 N002 1e12
RGND2 2 0 1e12
.backanno
.ends
*******
.subckt 0402X7R_33nF_885012205015 1 2 
.param
+ C0=3.300000000000E-08
+ Csat=3.320258149733E-09
+ Vth=1.635920631104E+01
+ Rs=7.010000000000E-03
+ Cs=3.300000000000E-08
+ Ls=2.358100000000E-10
+ Rp=1.000000000000E+10
Cs N002 2 Q=(x*{Csat})+({C0}*{Vth}*arctan(sinh(x/{Vth})))-({Csat}*{Vth}*(arctan(sinh(x/{Vth}))))
Rs N001 1 {Rs}
Ls N001 N002 {Ls}
Rp N002 2 {Rp}
RGND1 0 N002 1e12
RGND2 2 0 1e12
.backanno
.ends
*******
.subckt 0402X7R_100nF_885012205018 1 2 
.param
+ C0=1.000000000000E-07
+ Csat=1.000006695286E-08
+ Vth=1.107062467004E+01
+ Rs=1.835256913980E-02
+ Cs=1.000000000000E-07
+ Ls=3.075414670000E-10
+ Rp=5.000000000000E+09
Cs N002 2 Q=(x*{Csat})+({C0}*{Vth}*arctan(sinh(x/{Vth})))-({Csat}*{Vth}*(arctan(sinh(x/{Vth}))))
Rs N001 1 {Rs}
Ls N001 N002 {Ls}
Rp N002 2 {Rp}
RGND1 0 N002 1e12
RGND2 2 0 1e12
.backanno
.ends
*******
.subckt 0402X7R_47nF_885012205016 1 2 
.param
+ C0=4.700000000000E-08
+ Csat=4.700000076184E-09
+ Vth=1.481594491495E+01
+ Rs=7.100000000000E-03
+ Cs=4.700000000000E-08
+ Ls=2.065000000000E-10
+ Rp=1.000000000000E+10
Cs N002 2 Q=(x*{Csat})+({C0}*{Vth}*arctan(sinh(x/{Vth})))-({Csat}*{Vth}*(arctan(sinh(x/{Vth}))))
Rs N001 1 {Rs}
Ls N001 N002 {Ls}
Rp N002 2 {Rp}
RGND1 0 N002 1e12
RGND2 2 0 1e12
.backanno
.ends
*******
.subckt 0402X5R_100nF_885012105010 1 2 
.param
+ C0=1.000000000000E-07
+ Csat=1.000011618108E-08
+ Vth=8.237673040955E+00
+ Rs=2.680432167730E-02
+ Cs=1.000000000000E-07
+ Ls=3.111789880000E-10
+ Rp=5.000000000000E+09
Cs N002 2 Q=(x*{Csat})+({C0}*{Vth}*arctan(sinh(x/{Vth})))-({Csat}*{Vth}*(arctan(sinh(x/{Vth}))))
Rs N001 1 {Rs}
Ls N001 N002 {Ls}
Rp N002 2 {Rp}
RGND1 0 N002 1e12
RGND2 2 0 1e12
.backanno
.ends
*******
.subckt 0402X5R_220nF_885012105011 1 2 
.param
+ C0=2.200000000000E-07
+ Csat=2.200010624336E-08
+ Vth=7.701765929263E+00
+ Rs=1.227177514010E-02
+ Cs=2.200000000000E-07
+ Ls=3.484397450000E-10
+ Rp=2.300000000000E+09
Cs N002 2 Q=(x*{Csat})+({C0}*{Vth}*arctan(sinh(x/{Vth})))-({Csat}*{Vth}*(arctan(sinh(x/{Vth}))))
Rs N001 1 {Rs}
Ls N001 N002 {Ls}
Rp N002 2 {Rp}
RGND1 0 N002 1e12
RGND2 2 0 1e12
.backanno
.ends
*******
.subckt 0402X5R_1uF_885012105012 1 2 
.param
+ C0=1.000000000000E-06
+ Csat=1.462741067836E-07
+ Vth=2.640426786413E+00
+ Rs=9.864033399190E-03
+ Cs=1.000000000000E-06
+ Ls=3.282105500000E-10
+ Rp=5.000000000000E+07
Cs N002 2 Q=(x*{Csat})+({C0}*{Vth}*arctan(sinh(x/{Vth})))-({Csat}*{Vth}*(arctan(sinh(x/{Vth}))))
Rs N001 1 {Rs}
Ls N001 N002 {Ls}
Rp N002 2 {Rp}
RGND1 0 N002 1e12
RGND2 2 0 1e12
.backanno
.ends
*******
.subckt 0402X5R_2-2uF_885012105013 1 2 
.param
+ C0=2.200000000000E-06
+ Csat=2.490318522310E-07
+ Vth=2.471751682628E+00
+ Rs=9.771521005000E-03
+ Cs=2.200000000000E-06
+ Ls=3.037334140000E-10
+ Rp=2.000000000000E+07
Cs N002 2 Q=(x*{Csat})+({C0}*{Vth}*arctan(sinh(x/{Vth})))-({Csat}*{Vth}*(arctan(sinh(x/{Vth}))))
Rs N001 1 {Rs}
Ls N001 N002 {Ls}
Rp N002 2 {Rp}
RGND1 0 N002 1e12
RGND2 2 0 1e12
.backanno
.ends
*******
.subckt 0402X7R_100pF_885012205001 1 2 
.param
+ C0=1.000000000000E-10
+ Csat=1.000000000000E-10
+ Vth=1.000000000000E+00
+ Rs=7.861900000000E-01
+ Cs=1.000000000000E-10
+ Ls=1.513800000000E-10
+ Rp=1.000000000000E+10
Cs N002 2 Q=(x*{Csat})+({C0}*{Vth}*arctan(sinh(x/{Vth})))-({Csat}*{Vth}*(arctan(sinh(x/{Vth}))))
Rs N001 1 {Rs}
Ls N001 N002 {Ls}
Rp N002 2 {Rp}
RGND1 0 N002 1e12
RGND2 2 0 1e12
.backanno
.ends
*******
.subckt 0402X7R_220pF_885012205002 1 2 
.param
+ C0=2.200000000000E-10
+ Csat=2.200000000000E-10
+ Vth=1.000000000000E+00
+ Rs=5.727000000000E-01
+ Cs=2.200000000000E-10
+ Ls=1.776959910000E-10
+ Rp=1.000000000000E+10
Cs N002 2 Q=(x*{Csat})+({C0}*{Vth}*arctan(sinh(x/{Vth})))-({Csat}*{Vth}*(arctan(sinh(x/{Vth}))))
Rs N001 1 {Rs}
Ls N001 N002 {Ls}
Rp N002 2 {Rp}
RGND1 0 N002 1e12
RGND2 2 0 1e12
.backanno
.ends
*******
.subckt 0402X7R_330pF_885012205003 1 2 
.param
+ C0=3.300000000000E-10
+ Csat=3.300000000000E-10
+ Vth=1.000000000000E+00
+ Rs=4.375300000000E-01
+ Cs=3.300000000000E-10
+ Ls=2.020100000000E-10
+ Rp=1.000000000000E+10
Cs N002 2 Q=(x*{Csat})+({C0}*{Vth}*arctan(sinh(x/{Vth})))-({Csat}*{Vth}*(arctan(sinh(x/{Vth}))))
Rs N001 1 {Rs}
Ls N001 N002 {Ls}
Rp N002 2 {Rp}
RGND1 0 N002 1e12
RGND2 2 0 1e12
.backanno
.ends
*******
.subckt 0402X7R_470pF_885012205004 1 2 
.param
+ C0=4.700000000000E-10
+ Csat=4.700000000000E-10
+ Vth=1.000000000000E+00
+ Rs=3.353700000000E-01
+ Cs=4.700000000000E-10
+ Ls=1.801300000000E-10
+ Rp=1.000000000000E+10
Cs N002 2 Q=(x*{Csat})+({C0}*{Vth}*arctan(sinh(x/{Vth})))-({Csat}*{Vth}*(arctan(sinh(x/{Vth}))))
Rs N001 1 {Rs}
Ls N001 N002 {Ls}
Rp N002 2 {Rp}
RGND1 0 N002 1e12
RGND2 2 0 1e12
.backanno
.ends
*******
.subckt 0402X7R_680pF_885012205005 1 2 
.param
+ C0=6.800000000000E-10
+ Csat=6.800000000000E-10
+ Vth=1.000000000000E+00
+ Rs=2.613300000000E-01
+ Cs=6.800000000000E-10
+ Ls=1.575600000000E-10
+ Rp=1.000000000000E+10
Cs N002 2 Q=(x*{Csat})+({C0}*{Vth}*arctan(sinh(x/{Vth})))-({Csat}*{Vth}*(arctan(sinh(x/{Vth}))))
Rs N001 1 {Rs}
Ls N001 N002 {Ls}
Rp N002 2 {Rp}
RGND1 0 N002 1e12
RGND2 2 0 1e12
.backanno
.ends
*******
.subckt 0402X7R_1nF_885012205006 1 2 
.param
+ C0=1.000000000000E-09
+ Csat=1.000000000000E-09
+ Vth=1.000000000000E+00
+ Rs=1.908900000000E-01
+ Cs=1.000000000000E-09
+ Ls=1.774300000000E-10
+ Rp=1.000000000000E+10
Cs N002 2 Q=(x*{Csat})+({C0}*{Vth}*arctan(sinh(x/{Vth})))-({Csat}*{Vth}*(arctan(sinh(x/{Vth}))))
Rs N001 1 {Rs}
Ls N001 N002 {Ls}
Rp N002 2 {Rp}
RGND1 0 N002 1e12
RGND2 2 0 1e12
.backanno
.ends
*******
.subckt 0402X7R_1-5nF_885012205007 1 2 
.param
+ C0=1.500000000000E-09
+ Csat=1.500000000000E-09
+ Vth=1.000000000000E+00
+ Rs=1.672100000000E-01
+ Cs=1.500000000000E-09
+ Ls=2.407600000000E-10
+ Rp=1.000000000000E+10
Cs N002 2 Q=(x*{Csat})+({C0}*{Vth}*arctan(sinh(x/{Vth})))-({Csat}*{Vth}*(arctan(sinh(x/{Vth}))))
Rs N001 1 {Rs}
Ls N001 N002 {Ls}
Rp N002 2 {Rp}
RGND1 0 N002 1e12
RGND2 2 0 1e12
.backanno
.ends
*******
.subckt 0402X7R_2-2nF_885012205008 1 2 
.param
+ C0=2.200000000000E-09
+ Csat=2.200000000000E-09
+ Vth=1.000000000000E+00
+ Rs=1.152400000000E-01
+ Cs=2.200000000000E-09
+ Ls=2.272220000000E-10
+ Rp=1.000000000000E+10
Cs N002 2 Q=(x*{Csat})+({C0}*{Vth}*arctan(sinh(x/{Vth})))-({Csat}*{Vth}*(arctan(sinh(x/{Vth}))))
Rs N001 1 {Rs}
Ls N001 N002 {Ls}
Rp N002 2 {Rp}
RGND1 0 N002 1e12
RGND2 2 0 1e12
.backanno
.ends
*******
.subckt 0402X7R_3-3nF_885012205009 1 2 
.param
+ C0=3.300000000000E-09
+ Csat=3.300000000000E-09
+ Vth=1.000000000000E+00
+ Rs=8.970000000000E-02
+ Cs=3.300000000000E-09
+ Ls=2.351800000000E-10
+ Rp=1.000000000000E+10
Cs N002 2 Q=(x*{Csat})+({C0}*{Vth}*arctan(sinh(x/{Vth})))-({Csat}*{Vth}*(arctan(sinh(x/{Vth}))))
Rs N001 1 {Rs}
Ls N001 N002 {Ls}
Rp N002 2 {Rp}
RGND1 0 N002 1e12
RGND2 2 0 1e12
.backanno
.ends
*******
.subckt 0402X7R_4-7nF_885012205010 1 2 
.param
+ C0=4.700000000000E-09
+ Csat=4.700000000000E-09
+ Vth=1.000000000000E+00
+ Rs=5.632000000000E-02
+ Cs=4.700000000000E-09
+ Ls=1.893100000000E-10
+ Rp=1.000000000000E+10
Cs N002 2 Q=(x*{Csat})+({C0}*{Vth}*arctan(sinh(x/{Vth})))-({Csat}*{Vth}*(arctan(sinh(x/{Vth}))))
Rs N001 1 {Rs}
Ls N001 N002 {Ls}
Rp N002 2 {Rp}
RGND1 0 N002 1e12
RGND2 2 0 1e12
.backanno
.ends
*******
.subckt 0402X7R_6-8nF_885012205011 1 2 
.param
+ C0=6.800000000000E-09
+ Csat=6.800000000000E-09
+ Vth=1.000000000000E+00
+ Rs=4.164000000000E-02
+ Cs=6.800000000000E-09
+ Ls=2.106400000000E-10
+ Rp=1.000000000000E+10
Cs N002 2 Q=(x*{Csat})+({C0}*{Vth}*arctan(sinh(x/{Vth})))-({Csat}*{Vth}*(arctan(sinh(x/{Vth}))))
Rs N001 1 {Rs}
Ls N001 N002 {Ls}
Rp N002 2 {Rp}
RGND1 0 N002 1e12
RGND2 2 0 1e12
.backanno
.ends
*******
.subckt 0402X7R_10nF_885012205012 1 2 
.param
+ C0=1.000000000000E-08
+ Csat=1.000000000000E-08
+ Vth=1.000000000000E+00
+ Rs=5.313989566390E-02
+ Cs=1.000000000000E-08
+ Ls=2.200000000000E-10
+ Rp=1.000000000000E+10
Cs N002 2 Q=(x*{Csat})+({C0}*{Vth}*arctan(sinh(x/{Vth})))-({Csat}*{Vth}*(arctan(sinh(x/{Vth}))))
Rs N001 1 {Rs}
Ls N001 N002 {Ls}
Rp N002 2 {Rp}
RGND1 0 N002 1e12
RGND2 2 0 1e12
.backanno
.ends
*******
.subckt 0402NP0_10pF_885012005007 1 2 
.param
+ Rs=4.945477058240E-01
+ Cs=1.000000000000E-11
+ Ls=3.673891420000E-10
+ Rp=1.000000000000E+10
Cs N002 2 {Cs}
Rs N001 1 {Rs}
Ls N001 N002 {Ls}
Rp N002 2 {Rp}
RGND1 0 N002 1e12
RGND2 2 0 1e12
.backanno
.ends
*******
.subckt 0402NP0_15pF_885012005008 1 2 
.param
+ Rs=3.881907804910E-01
+ Cs=1.500000000000E-11
+ Ls=3.173077890000E-10
+ Rp=1.000000000000E+10
Cs N002 2 {Cs}
Rs N001 1 {Rs}
Ls N001 N002 {Ls}
Rp N002 2 {Rp}
RGND1 0 N002 1e12
RGND2 2 0 1e12
.backanno
.ends
*******
.subckt 0402NP0_22pF_885012005009 1 2 
.param
+ Rs=3.162302225980E-01
+ Cs=2.200000000000E-11
+ Ls=2.880774780000E-10
+ Rp=1.000000000000E+10
Cs N002 2 {Cs}
Rs N001 1 {Rs}
Ls N001 N002 {Ls}
Rp N002 2 {Rp}
RGND1 0 N002 1e12
RGND2 2 0 1e12
.backanno
.ends
*******
.subckt 0402NP0_33pF_885012005010 1 2 
.param
+ Rs=2.493244702590E-01
+ Cs=3.300000000000E-11
+ Ls=2.847302230000E-10
+ Rp=1.000000000000E+10
Cs N002 2 {Cs}
Rs N001 1 {Rs}
Ls N001 N002 {Ls}
Rp N002 2 {Rp}
RGND1 0 N002 1e12
RGND2 2 0 1e12
.backanno
.ends
*******
.subckt 0402NP0_47pF_885012005011 1 2 
.param
+ Rs=2.356862895630E-01
+ Cs=4.700000000000E-11
+ Ls=2.782725140000E-10
+ Rp=1.000000000000E+10
Cs N002 2 {Cs}
Rs N001 1 {Rs}
Ls N001 N002 {Ls}
Rp N002 2 {Rp}
RGND1 0 N002 1e12
RGND2 2 0 1e12
.backanno
.ends
*******
.subckt 0402NP0_68pF_885012005012 1 2 
.param
+ Rs=1.880111837550E-01
+ Cs=6.800000000000E-11
+ Ls=2.629798060000E-10
+ Rp=1.000000000000E+10
Cs N002 2 {Cs}
Rs N001 1 {Rs}
Ls N001 N002 {Ls}
Rp N002 2 {Rp}
RGND1 0 N002 1e12
RGND2 2 0 1e12
.backanno
.ends
*******
.subckt 0402NP0_100pF_885012005013 1 2 
.param
+ Rs=1.454900518780E-01
+ Cs=1.000000000000E-10
+ Ls=2.512441200000E-10
+ Rp=1.000000000000E+10
Cs N002 2 {Cs}
Rs N001 1 {Rs}
Ls N001 N002 {Ls}
Rp N002 2 {Rp}
RGND1 0 N002 1e12
RGND2 2 0 1e12
.backanno
.ends
*******
.subckt 0402NP0_150pF_885012005014 1 2 
.param
+ Rs=1.028932458850E-01
+ Cs=1.500000000000E-10
+ Ls=2.189438100000E-10
+ Rp=1.000000000000E+10
Cs N002 2 {Cs}
Rs N001 1 {Rs}
Ls N001 N002 {Ls}
Rp N002 2 {Rp}
RGND1 0 N002 1e12
RGND2 2 0 1e12
.backanno
.ends
*******
.subckt 0402NP0_220pF_885012005015 1 2 
.param
+ Rs=9.326916798380E-02
+ Cs=2.200000000000E-10
+ Ls=1.502718060000E-10
+ Rp=1.000000000000E+10
Cs N002 2 {Cs}
Rs N001 1 {Rs}
Ls N001 N002 {Ls}
Rp N002 2 {Rp}
RGND1 0 N002 1e12
RGND2 2 0 1e12
.backanno
.ends
*******
.subckt 0402NP0_330pF_885012005016 1 2 
.param
+ Rs=8.932414898710E-02
+ Cs=3.300000000000E-10
+ Ls=3.292959530000E-10
+ Rp=1.000000000000E+10
Cs N002 2 {Cs}
Rs N001 1 {Rs}
Ls N001 N002 {Ls}
Rp N002 2 {Rp}
RGND1 0 N002 1e12
RGND2 2 0 1e12
.backanno
.ends
*******
.subckt 0402NP0_470pF_885012005017 1 2 
.param
+ Rs=1.491785310970E-02
+ Cs=4.700000000000E-10
+ Ls=3.262413680000E-10
+ Rp=1.000000000000E+10
Cs N002 2 {Cs}
Rs N001 1 {Rs}
Ls N001 N002 {Ls}
Rp N002 2 {Rp}
RGND1 0 N002 1e12
RGND2 2 0 1e12
.backanno
.ends
*******
.subckt 0402NP0_1nF_885012005018 1 2 
.param
+ Rs=1.570044123960E-02
+ Cs=1.000000000000E-09
+ Ls=3.379418620000E-10
+ Rp=1.000000000000E+10
Cs N002 2 {Cs}
Rs N001 1 {Rs}
Ls N001 N002 {Ls}
Rp N002 2 {Rp}
RGND1 0 N002 1e12
RGND2 2 0 1e12
.backanno
.ends
*******
.subckt 0603X7R_47nF_885012206018 1 2 
.param
+ C0=4.700000000000E-08
+ Csat=4.175102663694E-08
+ Vth=9.837172633426E+02
+ Rs=1.343000000000E-02
+ Cs=4.700000000000E-08
+ Ls=2.447600000000E-10
+ Rp=1.000000000000E+10
Cs N002 2 Q=(x*{Csat})+({C0}*{Vth}*arctan(sinh(x/{Vth})))-({Csat}*{Vth}*(arctan(sinh(x/{Vth}))))
Rs N001 1 {Rs}
Ls N001 N002 {Ls}
Rp N002 2 {Rp}
RGND1 0 N002 1e12
RGND2 2 0 1e12
.backanno
.ends
*******
.subckt 0603X7R_33nF_885012206017 1 2 
.param
+ C0=3.300000000000E-08
+ Csat=2.966135134242E-08
+ Vth=9.997349178411E+02
+ Rs=1.243000000000E-02
+ Cs=3.300000000000E-08
+ Ls=2.598200000000E-10
+ Rp=1.000000000000E+10
Cs N002 2 Q=(x*{Csat})+({C0}*{Vth}*arctan(sinh(x/{Vth})))-({Csat}*{Vth}*(arctan(sinh(x/{Vth}))))
Rs N001 1 {Rs}
Ls N001 N002 {Ls}
Rp N002 2 {Rp}
RGND1 0 N002 1e12
RGND2 2 0 1e12
.backanno
.ends
*******
.subckt 0603X7R_100nF_885012206020 1 2 
.param
+ C0=1.000000000000E-07
+ Csat=1.007985845429E-08
+ Vth=3.971053044438E+01
+ Rs=1.888832138350E-02
+ Cs=1.000000000000E-07
+ Ls=4.535937630000E-10
+ Rp=5.000000000000E+09
Cs N002 2 Q=(x*{Csat})+({C0}*{Vth}*arctan(sinh(x/{Vth})))-({Csat}*{Vth}*(arctan(sinh(x/{Vth}))))
Rs N001 1 {Rs}
Ls N001 N002 {Ls}
Rp N002 2 {Rp}
RGND1 0 N002 1e12
RGND2 2 0 1e12
.backanno
.ends
*******
.subckt 0603X7R_68nF_885012206019 1 2 
.param
+ C0=6.800000000000E-08
+ Csat=8.245520855916E-09
+ Vth=3.240327978515E+01
+ Rs=1.550000000000E-02
+ Cs=6.800000000000E-08
+ Ls=3.073700000000E-10
+ Rp=7.400000000000E+09
Cs N002 2 Q=(x*{Csat})+({C0}*{Vth}*arctan(sinh(x/{Vth})))-({Csat}*{Vth}*(arctan(sinh(x/{Vth}))))
Rs N001 1 {Rs}
Ls N001 N002 {Ls}
Rp N002 2 {Rp}
RGND1 0 N002 1e12
RGND2 2 0 1e12
.backanno
.ends
*******
.subckt 0603X7R_1uF_885012206026 1 2 
.param
+ C0=1.000000000000E-06
+ Csat=1.000078917100E-07
+ Vth=8.805736819600E+00
+ Rs=7.435606403460E-03
+ Cs=1.000000000000E-06
+ Ls=2.296328390000E-10
+ Rp=1.000000000000E+08
Cs N002 2 Q=(x*{Csat})+({C0}*{Vth}*arctan(sinh(x/{Vth})))-({Csat}*{Vth}*(arctan(sinh(x/{Vth}))))
Rs N001 1 {Rs}
Ls N001 N002 {Ls}
Rp N002 2 {Rp}
RGND1 0 N002 1e12
RGND2 2 0 1e12
.backanno
.ends
*******
.subckt 0603X7R_680nF_885012206025 1 2 
.param
+ C0=6.800000000000E-07
+ Csat=6.800012621391E-08
+ Vth=1.080454767972E+01
+ Rs=7.300553841660E-03
+ Cs=6.800000000000E-07
+ Ls=4.351621690000E-10
+ Rp=2.000000000000E+08
Cs N002 2 Q=(x*{Csat})+({C0}*{Vth}*arctan(sinh(x/{Vth})))-({Csat}*{Vth}*(arctan(sinh(x/{Vth}))))
Rs N001 1 {Rs}
Ls N001 N002 {Ls}
Rp N002 2 {Rp}
RGND1 0 N002 1e12
RGND2 2 0 1e12
.backanno
.ends
*******
.subckt 0603X7R_330nF_885012206023 1 2 
.param
+ C0=3.300000000000E-07
+ Csat=3.300131988219E-08
+ Vth=1.247888135074E+01
+ Rs=1.134799190050E-02
+ Cs=3.300000000000E-07
+ Ls=4.485676360000E-10
+ Rp=1.500000000000E+09
Cs N002 2 Q=(x*{Csat})+({C0}*{Vth}*arctan(sinh(x/{Vth})))-({Csat}*{Vth}*(arctan(sinh(x/{Vth}))))
Rs N001 1 {Rs}
Ls N001 N002 {Ls}
Rp N002 2 {Rp}
RGND1 0 N002 1e12
RGND2 2 0 1e12
.backanno
.ends
*******
.subckt 0603X5R_330nF_885012106007 1 2 
.param
+ C0=3.300000000000E-07
+ Csat=3.300016869940E-08
+ Vth=1.208533980837E+01
+ Rs=1.110389750020E-02
+ Cs=3.300000000000E-07
+ Ls=3.209332840000E-10
+ Rp=1.500000000000E+09
Cs N002 2 Q=(x*{Csat})+({C0}*{Vth}*arctan(sinh(x/{Vth})))-({Csat}*{Vth}*(arctan(sinh(x/{Vth}))))
Rs N001 1 {Rs}
Ls N001 N002 {Ls}
Rp N002 2 {Rp}
RGND1 0 N002 1e12
RGND2 2 0 1e12
.backanno
.ends
*******
.subckt 0603X7R_220nF_885012206022 1 2 
.param
+ C0=2.200000000000E-07
+ Csat=2.201425747503E-08
+ Vth=1.353072635311E+01
+ Rs=1.468622288430E-02
+ Cs=2.200000000000E-07
+ Ls=4.430104810000E-10
+ Rp=2.300000000000E+09
Cs N002 2 Q=(x*{Csat})+({C0}*{Vth}*arctan(sinh(x/{Vth})))-({Csat}*{Vth}*(arctan(sinh(x/{Vth}))))
Rs N001 1 {Rs}
Ls N001 N002 {Ls}
Rp N002 2 {Rp}
RGND1 0 N002 1e12
RGND2 2 0 1e12
.backanno
.ends
*******
.subckt 0603X7R_2-2uF_885012206027 1 2 
.param
+ C0=2.200000000000E-06
+ Csat=3.874584416988E-07
+ Vth=3.581473424576E+00
+ Rs=8.444258618190E-03
+ Cs=2.200000000000E-06
+ Ls=2.903356690000E-10
+ Rp=2.000000000000E+07
Cs N002 2 Q=(x*{Csat})+({C0}*{Vth}*arctan(sinh(x/{Vth})))-({Csat}*{Vth}*(arctan(sinh(x/{Vth}))))
Rs N001 1 {Rs}
Ls N001 N002 {Ls}
Rp N002 2 {Rp}
RGND1 0 N002 1e12
RGND2 2 0 1e12
.backanno
.ends
*******
.subckt 0603X7R_150nF_885012206021 1 2 
.param
+ C0=1.500000000000E-07
+ Csat=1.500083488586E-08
+ Vth=1.374049859675E+01
+ Rs=2.211382422790E-02
+ Cs=1.500000000000E-07
+ Ls=4.076257420000E-10
+ Rp=3.300000000000E+09
Cs N002 2 Q=(x*{Csat})+({C0}*{Vth}*arctan(sinh(x/{Vth})))-({Csat}*{Vth}*(arctan(sinh(x/{Vth}))))
Rs N001 1 {Rs}
Ls N001 N002 {Ls}
Rp N002 2 {Rp}
RGND1 0 N002 1e12
RGND2 2 0 1e12
.backanno
.ends
*******
.subckt 0603X5R_470nF_885012106008 1 2 
.param
+ C0=4.700000000000E-07
+ Csat=4.701433225852E-08
+ Vth=1.134598244924E+01
+ Rs=9.496332925170E-03
+ Cs=4.700000000000E-07
+ Ls=2.705393020000E-10
+ Rp=2.000000000000E+08
Cs N002 2 Q=(x*{Csat})+({C0}*{Vth}*arctan(sinh(x/{Vth})))-({Csat}*{Vth}*(arctan(sinh(x/{Vth}))))
Rs N001 1 {Rs}
Ls N001 N002 {Ls}
Rp N002 2 {Rp}
RGND1 0 N002 1e12
RGND2 2 0 1e12
.backanno
.ends
*******
.subckt 0603X7R_470nF_885012206024 1 2 
.param
+ C0=4.700000000000E-07
+ Csat=4.700100933379E-08
+ Vth=1.125498709255E+01
+ Rs=9.610495899930E-03
+ Cs=4.700000000000E-07
+ Ls=4.093436510000E-10
+ Rp=2.000000000000E+08
Cs N002 2 Q=(x*{Csat})+({C0}*{Vth}*arctan(sinh(x/{Vth})))-({Csat}*{Vth}*(arctan(sinh(x/{Vth}))))
Rs N001 1 {Rs}
Ls N001 N002 {Ls}
Rp N002 2 {Rp}
RGND1 0 N002 1e12
RGND2 2 0 1e12
.backanno
.ends
*******
.subckt 0603X5R_2-2uF_885012106011 1 2 
.param
+ C0=2.200000000000E-06
+ Csat=3.349823214640E-07
+ Vth=3.118761064558E+00
+ Rs=6.185078844810E-03
+ Cs=2.200000000000E-06
+ Ls=2.531362830000E-10
+ Rp=5.000000000000E+07
Cs N002 2 Q=(x*{Csat})+({C0}*{Vth}*arctan(sinh(x/{Vth})))-({Csat}*{Vth}*(arctan(sinh(x/{Vth}))))
Rs N001 1 {Rs}
Ls N001 N002 {Ls}
Rp N002 2 {Rp}
RGND1 0 N002 1e12
RGND2 2 0 1e12
.backanno
.ends
*******
.subckt 0603X5R_680nF_885012106009 1 2 
.param
+ C0=6.800000000000E-07
+ Csat=1.140673127350E-07
+ Vth=5.132918270099E+00
+ Rs=1.120153625670E-02
+ Cs=6.800000000000E-07
+ Ls=3.506101320000E-10
+ Rp=2.000000000000E+08
Cs N002 2 Q=(x*{Csat})+({C0}*{Vth}*arctan(sinh(x/{Vth})))-({Csat}*{Vth}*(arctan(sinh(x/{Vth}))))
Rs N001 1 {Rs}
Ls N001 N002 {Ls}
Rp N002 2 {Rp}
RGND1 0 N002 1e12
RGND2 2 0 1e12
.backanno
.ends
*******
.subckt 0603X5R_1uF_885012106010 1 2 
.param
+ C0=1.000000000000E-06
+ Csat=1.792231245228E-07
+ Vth=4.974674403514E+00
+ Rs=8.020318015880E-03
+ Cs=1.000000000000E-06
+ Ls=3.002402090000E-10
+ Rp=1.000000000000E+08
Cs N002 2 Q=(x*{Csat})+({C0}*{Vth}*arctan(sinh(x/{Vth})))-({Csat}*{Vth}*(arctan(sinh(x/{Vth}))))
Rs N001 1 {Rs}
Ls N001 N002 {Ls}
Rp N002 2 {Rp}
RGND1 0 N002 1e12
RGND2 2 0 1e12
.backanno
.ends
*******
.subckt 0603X5R_4-7uF_885012106012 1 2 
.param
+ C0=4.700000000000E-06
+ Csat=6.246907335833E-07
+ Vth=3.075028739088E+00
+ Rs=4.554966935990E-03
+ Cs=4.700000000000E-06
+ Ls=5.033845160000E-10
+ Rp=2.000000000000E+07
Cs N002 2 Q=(x*{Csat})+({C0}*{Vth}*arctan(sinh(x/{Vth})))-({Csat}*{Vth}*(arctan(sinh(x/{Vth}))))
Rs N001 1 {Rs}
Ls N001 N002 {Ls}
Rp N002 2 {Rp}
RGND1 0 N002 1e12
RGND2 2 0 1e12
.backanno
.ends
*******
.subckt 0603X7R_100pF_885012206003 1 2 
.param
+ C0=1.000000000000E-10
+ Csat=1.000000000000E-10
+ Vth=1.000000000000E+00
+ Rs=8.621900000000E-01
+ Cs=1.000000000000E-10
+ Ls=2.099200000000E-10
+ Rp=1.000000000000E+10
Cs N002 2 Q=(x*{Csat})+({C0}*{Vth}*arctan(sinh(x/{Vth})))-({Csat}*{Vth}*(arctan(sinh(x/{Vth}))))
Rs N001 1 {Rs}
Ls N001 N002 {Ls}
Rp N002 2 {Rp}
RGND1 0 N002 1e12
RGND2 2 0 1e12
.backanno
.ends
*******
.subckt 0603X7R_220pF_885012206004 1 2 
.param
+ C0=2.200000000000E-10
+ Csat=2.200000000000E-10
+ Vth=1.000000000000E+00
+ Rs=5.566700000000E-01
+ Cs=2.200000000000E-10
+ Ls=3.006900000000E-10
+ Rp=1.000000000000E+10
Cs N002 2 Q=(x*{Csat})+({C0}*{Vth}*arctan(sinh(x/{Vth})))-({Csat}*{Vth}*(arctan(sinh(x/{Vth}))))
Rs N001 1 {Rs}
Ls N001 N002 {Ls}
Rp N002 2 {Rp}
RGND1 0 N002 1e12
RGND2 2 0 1e12
.backanno
.ends
*******
.subckt 0603X7R_330pF_885012206005 1 2 
.param
+ C0=3.300000000000E-10
+ Csat=3.300000000000E-10
+ Vth=1.000000000000E+00
+ Rs=4.375600000000E-01
+ Cs=3.300000000000E-10
+ Ls=2.606200000000E-10
+ Rp=1.000000000000E+10
Cs N002 2 Q=(x*{Csat})+({C0}*{Vth}*arctan(sinh(x/{Vth})))-({Csat}*{Vth}*(arctan(sinh(x/{Vth}))))
Rs N001 1 {Rs}
Ls N001 N002 {Ls}
Rp N002 2 {Rp}
RGND1 0 N002 1e12
RGND2 2 0 1e12
.backanno
.ends
*******
.subckt 0603X7R_470pF_885012206006 1 2 
.param
+ C0=4.700000000000E-10
+ Csat=4.700000000000E-10
+ Vth=1.000000000000E+00
+ Rs=3.724600000000E-01
+ Cs=4.700000000000E-10
+ Ls=3.010700000000E-10
+ Rp=1.000000000000E+10
Cs N002 2 Q=(x*{Csat})+({C0}*{Vth}*arctan(sinh(x/{Vth})))-({Csat}*{Vth}*(arctan(sinh(x/{Vth}))))
Rs N001 1 {Rs}
Ls N001 N002 {Ls}
Rp N002 2 {Rp}
RGND1 0 N002 1e12
RGND2 2 0 1e12
.backanno
.ends
*******
.subckt 0603X7R_680pF_885012206007 1 2 
.param
+ C0=6.800000000000E-10
+ Csat=6.800000000000E-10
+ Vth=1.000000000000E+00
+ Rs=3.185100000000E-01
+ Cs=6.800000000000E-10
+ Ls=4.023900000000E-10
+ Rp=1.000000000000E+10
Cs N002 2 Q=(x*{Csat})+({C0}*{Vth}*arctan(sinh(x/{Vth})))-({Csat}*{Vth}*(arctan(sinh(x/{Vth}))))
Rs N001 1 {Rs}
Ls N001 N002 {Ls}
Rp N002 2 {Rp}
RGND1 0 N002 1e12
RGND2 2 0 1e12
.backanno
.ends
*******
.subckt 0603X7R_1nF_885012206008 1 2 
.param
+ C0=1.000000000000E-09
+ Csat=1.000000000000E-09
+ Vth=1.000000000000E+00
+ Rs=2.495800000000E-01
+ Cs=1.000000000000E-09
+ Ls=4.039900000000E-10
+ Rp=1.000000000000E+10
Cs N002 2 Q=(x*{Csat})+({C0}*{Vth}*arctan(sinh(x/{Vth})))-({Csat}*{Vth}*(arctan(sinh(x/{Vth}))))
Rs N001 1 {Rs}
Ls N001 N002 {Ls}
Rp N002 2 {Rp}
RGND1 0 N002 1e12
RGND2 2 0 1e12
.backanno
.ends
*******
.subckt 0603X7R_1-5nF_885012206009 1 2 
.param
+ C0=1.500000000000E-09
+ Csat=1.500000000000E-09
+ Vth=1.000000000000E+00
+ Rs=2.008600000000E-01
+ Cs=1.500000000000E-09
+ Ls=3.382400000000E-10
+ Rp=1.000000000000E+10
Cs N002 2 Q=(x*{Csat})+({C0}*{Vth}*arctan(sinh(x/{Vth})))-({Csat}*{Vth}*(arctan(sinh(x/{Vth}))))
Rs N001 1 {Rs}
Ls N001 N002 {Ls}
Rp N002 2 {Rp}
RGND1 0 N002 1e12
RGND2 2 0 1e12
.backanno
.ends
*******
.subckt 0603X7R_2-2nF_885012206010 1 2 
.param
+ C0=2.200000000000E-09
+ Csat=2.200000000000E-09
+ Vth=1.000000000000E+00
+ Rs=1.494800000000E-01
+ Cs=2.200000000000E-09
+ Ls=3.333400000000E-10
+ Rp=1.000000000000E+10
Cs N002 2 Q=(x*{Csat})+({C0}*{Vth}*arctan(sinh(x/{Vth})))-({Csat}*{Vth}*(arctan(sinh(x/{Vth}))))
Rs N001 1 {Rs}
Ls N001 N002 {Ls}
Rp N002 2 {Rp}
RGND1 0 N002 1e12
RGND2 2 0 1e12
.backanno
.ends
*******
.subckt 0603X7R_3-3nF_885012206011 1 2 
.param
+ C0=3.300000000000E-09
+ Csat=3.300000000000E-09
+ Vth=1.000000000000E+00
+ Rs=1.241500000000E-01
+ Cs=3.300000000000E-09
+ Ls=3.253700000000E-10
+ Rp=1.000000000000E+10
Cs N002 2 Q=(x*{Csat})+({C0}*{Vth}*arctan(sinh(x/{Vth})))-({Csat}*{Vth}*(arctan(sinh(x/{Vth}))))
Rs N001 1 {Rs}
Ls N001 N002 {Ls}
Rp N002 2 {Rp}
RGND1 0 N002 1e12
RGND2 2 0 1e12
.backanno
.ends
*******
.subckt 0603X7R_4-7nF_885012206012 1 2 
.param
+ C0=4.700000000000E-09
+ Csat=4.700000000000E-09
+ Vth=1.000000000000E+00
+ Rs=7.518000000000E-02
+ Cs=4.700000000000E-09
+ Ls=3.009000000000E-10
+ Rp=1.000000000000E+10
Cs N002 2 Q=(x*{Csat})+({C0}*{Vth}*arctan(sinh(x/{Vth})))-({Csat}*{Vth}*(arctan(sinh(x/{Vth}))))
Rs N001 1 {Rs}
Ls N001 N002 {Ls}
Rp N002 2 {Rp}
RGND1 0 N002 1e12
RGND2 2 0 1e12
.backanno
.ends
*******
.subckt 0603X7R_6-8nF_885012206013 1 2 
.param
+ C0=6.800000000000E-09
+ Csat=6.800000000000E-09
+ Vth=1.000000000000E+00
+ Rs=7.031000000000E-02
+ Cs=6.800000000000E-09
+ Ls=3.905300000000E-10
+ Rp=1.000000000000E+10
Cs N002 2 Q=(x*{Csat})+({C0}*{Vth}*arctan(sinh(x/{Vth})))-({Csat}*{Vth}*(arctan(sinh(x/{Vth}))))
Rs N001 1 {Rs}
Ls N001 N002 {Ls}
Rp N002 2 {Rp}
RGND1 0 N002 1e12
RGND2 2 0 1e12
.backanno
.ends
*******
.subckt 0603X7R_10nF_885012206014 1 2 
.param
+ C0=1.000000000000E-08
+ Csat=1.000000000000E-08
+ Vth=1.000000000000E+00
+ Rs=4.641000000000E-02
+ Cs=1.000000000000E-08
+ Ls=2.573500000000E-10
+ Rp=1.000000000000E+10
Cs N002 2 Q=(x*{Csat})+({C0}*{Vth}*arctan(sinh(x/{Vth})))-({Csat}*{Vth}*(arctan(sinh(x/{Vth}))))
Rs N001 1 {Rs}
Ls N001 N002 {Ls}
Rp N002 2 {Rp}
RGND1 0 N002 1e12
RGND2 2 0 1e12
.backanno
.ends
*******
.subckt 0603X7R_15nF_885012206015 1 2 
.param
+ C0=1.500000000000E-08
+ Csat=1.500000000000E-08
+ Vth=1.000000000000E+00
+ Rs=3.908000000000E-02
+ Cs=1.500000000000E-08
+ Ls=2.607100000000E-10
+ Rp=1.000000000000E+10
Cs N002 2 Q=(x*{Csat})+({C0}*{Vth}*arctan(sinh(x/{Vth})))-({Csat}*{Vth}*(arctan(sinh(x/{Vth}))))
Rs N001 1 {Rs}
Ls N001 N002 {Ls}
Rp N002 2 {Rp}
RGND1 0 N002 1e12
RGND2 2 0 1e12
.backanno
.ends
*******
.subckt 0603X7R_22nF_885012206016 1 2 
.param
+ C0=2.200000000000E-08
+ Csat=2.200000000000E-08
+ Vth=1.000000000000E+00
+ Rs=2.302000000000E-02
+ Cs=2.200000000000E-08
+ Ls=2.371900000000E-10
+ Rp=1.000000000000E+10
Cs N002 2 Q=(x*{Csat})+({C0}*{Vth}*arctan(sinh(x/{Vth})))-({Csat}*{Vth}*(arctan(sinh(x/{Vth}))))
Rs N001 1 {Rs}
Ls N001 N002 {Ls}
Rp N002 2 {Rp}
RGND1 0 N002 1e12
RGND2 2 0 1e12
.backanno
.ends
*******
.subckt 0603NP0_4-7pF_885012006001 1 2 
.param
+ Rs=3.071439423540E-01
+ Cs=4.700000000000E-12
+ Ls=3.188705360000E-10
+ Rp=1.000000000000E+10
Cs N002 2 {Cs}
Rs N001 1 {Rs}
Ls N001 N002 {Ls}
Rp N002 2 {Rp}
RGND1 0 N002 1e12
RGND2 2 0 1e12
.backanno
.ends
*******
.subckt 0603NP0_10pF_885012006002 1 2 
.param
+ Rs=4.326355080290E-01
+ Cs=1.000000000000E-11
+ Ls=4.354742710000E-10
+ Rp=1.000000000000E+10
Cs N002 2 {Cs}
Rs N001 1 {Rs}
Ls N001 N002 {Ls}
Rp N002 2 {Rp}
RGND1 0 N002 1e12
RGND2 2 0 1e12
.backanno
.ends
*******
.subckt 0603NP0_15pF_885012006003 1 2 
.param
+ Rs=3.186258081470E-01
+ Cs=1.500000000000E-11
+ Ls=7.074242690000E-10
+ Rp=1.000000000000E+10
Cs N002 2 {Cs}
Rs N001 1 {Rs}
Ls N001 N002 {Ls}
Rp N002 2 {Rp}
RGND1 0 N002 1e12
RGND2 2 0 1e12
.backanno
.ends
*******
.subckt 0603NP0_22pF_885012006004 1 2 
.param
+ Rs=3.481961165400E-01
+ Cs=2.200000000000E-11
+ Ls=7.750185190000E-10
+ Rp=1.000000000000E+10
Cs N002 2 {Cs}
Rs N001 1 {Rs}
Ls N001 N002 {Ls}
Rp N002 2 {Rp}
RGND1 0 N002 1e12
RGND2 2 0 1e12
.backanno
.ends
*******
.subckt 0603NP0_33pF_885012006005 1 2 
.param
+ Rs=2.668455139970E-01
+ Cs=3.300000000000E-11
+ Ls=8.037237880000E-10
+ Rp=1.000000000000E+10
Cs N002 2 {Cs}
Rs N001 1 {Rs}
Ls N001 N002 {Ls}
Rp N002 2 {Rp}
RGND1 0 N002 1e12
RGND2 2 0 1e12
.backanno
.ends
*******
.subckt 0603NP0_47pF_885012006006 1 2 
.param
+ Rs=1.967827830050E-01
+ Cs=4.700000000000E-11
+ Ls=7.594266910000E-10
+ Rp=1.000000000000E+10
Cs N002 2 {Cs}
Rs N001 1 {Rs}
Ls N001 N002 {Ls}
Rp N002 2 {Rp}
RGND1 0 N002 1e12
RGND2 2 0 1e12
.backanno
.ends
*******
.subckt 0603NP0_68pF_885012006007 1 2 
.param
+ Rs=1.536417352220E-01
+ Cs=6.800000000000E-11
+ Ls=7.224891360000E-10
+ Rp=1.000000000000E+10
Cs N002 2 {Cs}
Rs N001 1 {Rs}
Ls N001 N002 {Ls}
Rp N002 2 {Rp}
RGND1 0 N002 1e12
RGND2 2 0 1e12
.backanno
.ends
*******
.subckt 0603NP0_100pF_885012006008 1 2 
.param
+ Rs=1.101298321290E-01
+ Cs=1.000000000000E-10
+ Ls=6.737852630000E-10
+ Rp=1.000000000000E+10
Cs N002 2 {Cs}
Rs N001 1 {Rs}
Ls N001 N002 {Ls}
Rp N002 2 {Rp}
RGND1 0 N002 1e12
RGND2 2 0 1e12
.backanno
.ends
*******
.subckt 0603NP0_150pF_885012006009 1 2 
.param
+ Rs=7.938916893180E-02
+ Cs=1.500000000000E-10
+ Ls=6.224155590000E-10
+ Rp=1.000000000000E+10
Cs N002 2 {Cs}
Rs N001 1 {Rs}
Ls N001 N002 {Ls}
Rp N002 2 {Rp}
RGND1 0 N002 1e12
RGND2 2 0 1e12
.backanno
.ends
*******
.subckt 0603NP0_220pF_885012006010 1 2 
.param
+ Rs=8.822030208800E-02
+ Cs=2.200000000000E-10
+ Ls=6.954925110000E-10
+ Rp=1.000000000000E+10
Cs N002 2 {Cs}
Rs N001 1 {Rs}
Ls N001 N002 {Ls}
Rp N002 2 {Rp}
RGND1 0 N002 1e12
RGND2 2 0 1e12
.backanno
.ends
*******
.subckt 0603NP0_330pF_885012006011 1 2 
.param
+ Rs=9.931510862050E-02
+ Cs=3.300000000000E-10
+ Ls=4.186531340000E-10
+ Rp=1.000000000000E+10
Cs N002 2 {Cs}
Rs N001 1 {Rs}
Ls N001 N002 {Ls}
Rp N002 2 {Rp}
RGND1 0 N002 1e12
RGND2 2 0 1e12
.backanno
.ends
*******
.subckt 0603NP0_470pF_885012006012 1 2 
.param
+ Rs=7.574434359920E-02
+ Cs=4.700000000000E-10
+ Ls=3.664817820000E-10
+ Rp=1.000000000000E+10
Cs N002 2 {Cs}