**************************************************
* Manufacturer:           Wurth Elektronik 
* Kinds:                  Common Mode Power Line Choke
* Matchcode:              WE-LF
* Library Type:           LTspice
* Version:                rev22a
* Created/modified by:    Ella      
* Date and Time:          2022-05-26
* Team:                   eiSos EDA Service  
* Contact:                libraries@we-online.com
**************************************************
* Copyright(C) 2022 Würth Elektronik eiSos GmbH & Co. KG
* All Rights Reserved.
**************************************************
* Disclaimer: While Würth Elektronik eiSos has made every reasonable effort to ensure the accuracy
* of the simulation models provided, Würth Elektronik eiSos does not guarantee the exemption of error on
* the simulation models, nor does Würth Elektronik eiSos guarantee that the simulation model is current.
* Würth Elektronik eiSos reserves the right to make any adjustments at any time without notice.
* Würth Elektronik eiSos expressly disclaims all implied warranties regarding this simulation model.
**************************************************
.SUBCKT  LF  1  2  3  4  PARAMS:
+  L1=0.00060538
+  L2=0.00010035
+  L3=0.00004247
+  L4=0.00001022
+  L5=0.000000036
+  C1=0.000000000003
+  C2=0.000000000001
+  RS1=8828
+  RS2=1447
+  RS3=703
+  RS4=678
+  RS5=509
+  R2=0.11
+  DL3=0.00000031037
+  DL4=0.00000001106
+  DC3=0.00000000000019056
+  DC4=0.000000000007
+  DR3=1000
+  DR4=4500
+  DR5=11000
+  DR6=438
+  Rdc=0.43
+  ck=12.5pF  
R_R9  N12325  3  {R2}
R_R8  N13265  N13287  {Rs4}
Kn_K6  L_L11  L_L12  
+  L_L13  L_L14  0.9999
R_R3  N12571  N12583  {Rs3}
R_R10  N13777  4  {R2}
C_C10  N13029  N12821  {ck}
R_R20  N13215  N13229  {dR4}
L_L11  N12821  N12295  {dL4}
R_R17  N12267  N12273  {dR3}
L_L8  N13265  N13287  {L4}
R_R7  N13287  N13305  {Rs3}
L_L9  N12295  N12307  {L5}
Kn_K4  L_L7  L_L8  1
R_R2  N12583  N12599  {Rs2}
Kn_K5  L_L9  L_L10  1
R_R16  N13229  N13249  {dR6}
Kn_K7  L_L15  L_L16  
+  L_L17  L_L18  0.9999
C_C5  N12273  N12289  {dC4}
L_L6  N13287  N13305  {L3}
L_L7  N12307  N12571  {L4}
R_R6  N13305  N13319  {Rs2}
R_R21  1  N12257  {Rdc}
Kn_K3  L_L5  L_L6  1
L_L16  N12257  N12799  {dL3}
C_C8  N13215  N13741  {dC3}
L_L18  N13023  N13215  {dL3}
R_R1  N12599  3  {Rs1}
R_R13  N12289  N12295  {dR5}
L_L4  N13305  N13319  {L2}
L_L5  N12571  N12583  {L3}
R_R15  N13755  N13249  {dR5}
R_R5  N13319  4  {Rs1}
R_R18  N12257  N12273  {dR4}
Kn_K2  L_L3  L_L4  1
R_R19  N13741  N13229  {dR3}
L_L15  N12799  N12273  {dL3}
L_L17  N13229  N13023  {dL3}
L_L3  N12583  N12599  {L2}
R_R11  N12295  N12307  {Rs5}
L_L2  N13319  4  {L1}
C_C4  N13249  N13265  {C2}
L_L10  N13249  N13265  {L5}
Kn_K1  L_L1  L_L2  1
R_R14  N12273  N12295  {dR6}
C_C6  N13229  N13755  {dC4}
L_L12  N12273  N12821  {dL4}
L_L14  N13029  N13229  {dL4}
L_L1  N12599  3  {L1}
C_C1  N12307  N12325  {C1}
R_R12  N13249  N13265  {Rs5}
C_C2  N13265  N13777  {C1}
R_R22  2  N13215  {Rdc}
C_C9  N13023  N12799  {ck}
R_R4  N12307  N12571  {Rs4}
C_C3  N12295  N12307  {C2}
L_L13  N13249  N13029  {dL4}
C_C7  N12257  N12267  {dC3}
.ends  LF
*****
.SUBCKT  LF26  1  2  3  4  PARAMS:
+  L1=11m
+  L2=0.08m
+  L3=155m
+  L4=162.5m
+  L5=1090n
+  L6=1.99964526241581E-07
+  C1=47p
+  C2=43p
+  C3=2.529379663444E-12
+  Rs1=110k
+  RS2=400
+  RS3=400
+  RS4=400
+  RS5=570
+  RS6=1
+  R2=1.4422510600994
+  DL3=0.000005
+  DL4=0.000000145
+  DC3=0.000000000044
+  DC4=0.0000000000484
+  DR3=17
+  dR4=12k
+  DR5=23
+  dR6=.6k
+  Rdc=0.073
+  ck=1pF
L5  N011  N010  {L3}
R50  N011  N010  {Rs3}
C3  N500  N001  {C1}
R500  3  N500  {R2}
L1  3  N012  {L1}
R51  3  N012  {Rs1}
L3  N012  N011  {L2}
R52  N012  N011  {Rs2}
L6  N015  N014  {L3}
R53  N015  N014  {Rs3}
C4  N501  N013  {C1}
R501  4  N501  {R2}
L2  4  N016  {L1}
R54  4  N016  {Rs1}
L4  N016  N015  {L2}
R55  N016  N015  {Rs2}
L8  N014  N013  {L4}
R56  N014  N013  {Rs4}
L7  N010  N001  {L4}
R57  N010  N001  {Rs4}
L9  N001  N007  {L5}
R58  N001  N007  {Rs5}
C50  N001  N007  {C2}
L10  N013  N022  {L5}
R59  N013  N022  {Rs5}
C51  N013  N022  {C2}
L11  N007  N006  {L6}
R60  N007  N006  {Rs6}
C52  N007  N006  {C3}
L12  N022  N021  {L6}
R61  N022  N021  {Rs6}
C53  N022  N021  {C3}
R1  N002  1  {Rdc}  
R2  N004  N002  {dR4}  
C1  N003  N002  {dC3}  
L17  N008  N002  {dL3}  
L18  N017  N018  {dL3}  
C2  N008  N018  {ck}  
R3  N004  N003  {dR3}  
R4  N019  N023  {dR3}  
C9  N023  N017  {dC3}  
R5  N019  N017  {dR4}  
L19  N004  N008  {dL3}  
L20  N018  N019  {dL3}  
R6  N017  2  {Rdc}  
R8  N006  N004  {dR6}  
C10  N005  N004  {dC4}  
L13  N009  N004  {dL4}  
L14  N019  N020  {dL4}  
C11  N009  N020  {ck}  
R9  N006  N005  {dR5}  
R10  N021  N024  {dR5}  
C12  N024  N019  {dC4}  
R11  N021  N019  {dR6}  
L15  N006  N009  {dL4}  
L16  N020  N021  {dL4}  
K3  L5  L6  1    
K2  L3  L4  1    
K1  L1  L2  1    
K4  L7  L8  1    
K5  L9  L10  1    
K6  L11  L12  1    
K8  L17  L18  L19  L20  0.9999
K7  L13  L14  L15  L16  0.9999
.ends  LF26  
*****
.subckt LF_SV_74461240004_0m4 1 2 3 4
X1  1  2  3  4  LF  PARAMS:
+  DL3=0.000000185
+  DC3=0.000000000007
+  DL4=0.000000007
+  DC4=0.000000000005
+  DR3=27
+  DR4=3000
+  DR5=23
+  DR6=990
+  Rdc=0.013
+  ck=1pF
+  L1=0.4m
+  L2=0.3m
+  L3=1u
+  L4=2u
+  L5=25n
+  C1=2300.06f
+  C2=1270.02f
+  RS1=3000
+  RS2=122
+  RS3=1
+  RS4=1
+  RS5=600
+  R2=1.41
.ends LF_SV_74461240004_0m4
*****
.subckt LF_SV_7446122001_1m 1 2 3 4
X1  1  2  3  4  LF  PARAMS:
+  dL3=370n
+  dL4=17n
+  dC3=7p
+  dC4=2p
+  DR3=1
+  DR4=3200
+  DR5=1
+  DR6=500
+  Rdc=0.04
+  ck=2pF
+  L1=0.000721
+  L2=0.000107
+  L3=0.00013
+  L4=0.00000077
+  L5=0.00000005
+  C1=0.00000000000222
+  C2=0.00000000000137
+  RS1=5213
+  RS2=405
+  RS3=309
+  RS4=3423
+  RS5=690
+  R2=6
.ends LF_SV_7446122001_1m
*****
.subckt LF_SV_7446122003_3m3 1 2 3 4
X1  1  2  3  4  LF  PARAMS:
+  DL3=0.00000145
+  DL4=0.000000067
+  DC3=0.000000000014
+  DC4=0.000000000017
+  DR3=27
+  dR4=20k
+  DR5=23
+  DR6=3990
+  Rdc=0.1
+  ck=1pF
+  L1=2.2m
+  L2=1m
+  L3=1m
+  L4=4u
+  L5=210.4n
+  C1=4.5p
+  C2=20p
+  Rs1=20k
+  RS2=5600
+  RS3=500
+  RS4=600
+  RS5=900
+  R2=10.41
.ends LF_SV_7446122003_3m3
*****
.subckt LF_SV_7446121007_6m8 1 2 3 4
X1  1  2  3  4  LF  PARAMS:
+  DL3=0.0000023
+  DL4=0.000000097
+  DC3=0.000000000014
+  DC4=0.000000000015
+  DR3=27
+  dR4=18k
+  DR5=23
+  DR6=2500
+  Rdc=0.2
+  ck=2pF
+  L1=6.2m
+  L2=1m
+  L3=1m
+  L4=4u
+  L5=500.4n
+  C1=5.2p
+  C2=28p
+  Rs1=25k
+  Rs2=10k
+  RS3=500
+  RS4=600
+  RS5=900
+  R2=10.41
.ends LF_SV_7446121007_6m8
*****
.subckt LF_SV_7446121010_10m 1 2 3 4
X1  1  2  3  4  LF  PARAMS:
+  DL3=0.0000036
+  DL4=0.00000021
+  DC3=0.000000000014
+  DC4=0.000000000015
+  DR3=27
+  dR4=20k
+  DR5=23
+  DR6=3000
+  Rdc=0.366
+  ck=5.8pF
+  L1=8.6m
+  L2=1m
+  L3=1m
+  L4=5u
+  L5=610n
+  C1=6.8p
+  C2=28p
+  Rs1=42k
+  Rs2=23k
+  RS3=500
+  RS4=600
+  RS5=1600
+  R2=10.41
.ends LF_SV_7446121010_10m
*****
.subckt LF_SV_7446121018_18m 1 2 3 4
X1  1  2  3  4  LF26  PARAMS:
+  L1=20.2m  
+  L2=0.08m  
+  L3=1m  
+  L4=4u  
+  L5=900.4n  
+  L6=1.99964526241581E-07
+  C1=7.1p  
+  C2=28p  
+  C3=2.529379663444E-12
+  Rs1=120k  
+  RS2=400
+  RS3=400
+  RS4=400
+  RS5=900
+  RS6=1
+  R2=10.4422510600994
+  DL3=0.000007
+  DL4=0.000000297
+  DC3=0.0000000000095
+  DC4=0.000000000015
+  DR3=47
+  dR4=32k  
+  DR5=23
+  DR6=2800
+  Rdc=0.5
+  ck=1pF  
.ends LF_SV_7446121018_18m
*****
.subckt LF_SV_7446120027_27m 1 2 3 4
X1  1  2  3  4  LF  PARAMS:
+  DL3=0.00001
+  DL4=0.000000118
+  DC3=0.000000000018
+  DC4=0.00000000001
+  DR3=27
+  dR4=25k
+  DR5=23
+  DR6=2000
+  Rdc=0.8
+  ck=9.8pF
+  L1=21m
+  L2=12m
+  L3=1m
+  L4=5u
+  L5=70n
+  C1=20p
+  C2=28p
+  Rs1=99k
+  Rs2=33k
+  RS3=500
+  RS4=600
+  RS5=1000
+  R2=10.41
.ends LF_SV_7446120027_27m
*****
.subckt LF_SV_7446120039_39m 1 2 3 4
X1  1  2  3  4  LF  PARAMS:
+  DL3=0.000017
+  DL4=0.000000042
+  DC3=0.000000000019
+  DC4=0.00000000001
+  DR3=27
+  dR4=45k
+  DR5=23
+  DR6=2000
+  Rdc=1.13
+  ck=9.8pF
+  L1=20m
+  L2=12m
+  L3=1m
+  L4=5u
+  L5=620n
+  C1=22p
+  C2=28p
+  RS1=220000
+  RS2=83000
+  RS3=500
+  RS4=600
+  RS5=600
+  R2=10.41
.ends LF_SV_7446120039_39m
*****
.subckt LF_SV_7446120047_47m 1 2 3 4
X1  1  2  3  4  LF  PARAMS:
+  DL3=0.000014
+  DL4=0.000001342
+  DC3=0.000000000014
+  DC4=0.000000000001
+  DR3=27
+  dR4=35k
+  DR5=230
+  dR6=22k
+  Rdc=1.73
+  ck=11pF
+  L1=36m
+  L2=12m
+  L3=1m
+  L4=5u
+  L5=255n
+  C1=9p
+  C2=14p
+  Rs1=220k
+  Rs2=83k
+  RS3=500
+  RS4=600
+  RS5=1400
+  R2=10.41
.ends LF_SV_7446120047_47m
*****
.subckt LF_MV_74462250007_0m7 1 2 3 4
X1  1  2  3  4  LF  PARAMS:
+  DL3=0.0000025
+  DL4=0.000000067
+  DC3=0.000000000014
+  DC4=0.000000000017
+  DR3=27
+  dR4=20k
+  DR5=23
+  DR6=1990
+  Rdc=0.013
+  ck=1pF
+  L1=5m
+  L2=0.9m
+  L3=1m
+  L4=5u
+  L5=190n
+  C1=6.3p
+  C2=26p
+  Rs1=32k
+  Rs2=6k
+  RS3=500
+  RS4=600
+  RS5=600
+  R2=10.41
.ends LF_MV_74462250007_0m7
*****
.subckt LF_MV_7446223001_1m 1 2 3 4
X1  1  2  3  4  LF  PARAMS:
+  DL3=0.000000405
+  DL4=0.000000012
+  DC3=0.000000000009
+  DC4=0.000000000012
+  DR3=27
+  dR4=5k
+  DR5=23
+  DR6=4990
+  Rdc=0.026
+  ck=0.8pF
+  L1=0.000764
+  L2=0.000362
+  L3=0.000001
+  L4=0.00000221
+  L5=0.000000033
+  C1=0.0000000000032
+  C2=0.0000000000049
+  RS1=4628
+  RS2=629
+  RS3=1222
+  RS4=4989
+  RS5=383
+  R2=15
.ends LF_MV_7446223001_1m
*****
.subckt LF_MV_7446222002_2m2 1 2 3 4
X1  1  2  3  4  LF  PARAMS:
+  DL3=0.0000012
+  DL4=0.000000038
+  DC3=0.000000000017
+  DC4=0.000000000012
+  DR3=27
+  dR4=10k
+  DR5=23
+  DR6=4990
+  Rdc=0.04
+  ck=2.2pF
+  L1=2.5m
+  L2=90u
+  L3=100u
+  L4=5u
+  L5=105n
+  C1=4.3p
+  C2=6p
+  Rs1=15k
+  RS2=800
+  RS3=500
+  RS4=600
+  RS5=1200
+  R2=10.41
.ends LF_MV_7446222002_2m2
*****
.subckt LF_MV_7446222003_3m3 1 2 3 4
X1  1  2  3  4  LF  PARAMS:
+  DL3=0.0000022
+  DL4=0.000000088
+  DC3=0.0000000000125
+  DC4=0.0000000000115
+  DR3=27
+  dR4=14k
+  DR5=23
+  DR6=2990
+  Rdc=0.08
+  ck=2.2pF
+  L1=4.5m
+  L2=900u
+  L3=100u
+  L4=5u
+  L5=180n
+  C1=5.3p
+  C2=6p
+  Rs1=20k
+  RS2=800
+  RS3=500
+  RS4=600
+  RS5=1300
+  R2=10.41
.ends LF_MV_7446222003_3m3
*****
.subckt LF_MV_7446222004_4m2 1 2 3 4
X1  1  2  3  4  LF26  PARAMS:
+  L1=7.2m  
+  L2=0.03m  
+  L3=.5m  
+  L4=4u  
+  L5=900.4n  
+  L6=1.99964526241581E-07
+  C1=9.8p  
+  C2=20p  
+  C3=2.529379663444E-12
+  Rs1=35k  
+  RS2=400
+  RS3=400
+  RS4=400
+  RS5=1900
+  RS6=1
+  R2=10.4422510600994
+  DL3=0.0000028
+  DL4=0.000000108
+  DC3=0.0000000000125
+  DC4=0.0000000000115
+  DR3=27
+  dR4=14k  
+  DR5=23
+  DR6=2990
+  Rdc=0.13
+  ck=1pF  
.ends LF_MV_7446222004_4m2
*****
.subckt LF_MV_7446222007_6m8 1 2 3 4
X1  1  2  3  4  LF  PARAMS:
+  DL3=0.0000015
+  DL4=0.000000058
+  DC3=0.0000000000155
+  DC4=0.000000000012
+  DR3=27
+  dR4=14k
+  DR5=23
+  DR6=5990
+  Rdc=0.05
+  ck=2.2pF
+  L1=3m
+  L2=1m
+  L3=110u
+  L4=5u
+  L5=250n
+  C1=4.3p
+  C2=4p
+  Rs1=15k
+  RS2=800
+  RS3=500
+  RS4=600
+  RS5=1600
+  R2=10.41
.ends LF_MV_7446222007_6m8
*****
.subckt LF_MV_7446221010_10m 1 2 3 4
X1  1  2  3  4  LF  PARAMS:
+  DL3=0.0000049
+  DL4=0.000000138
+  DC3=0.0000000000108
+  DC4=0.000000000022
+  DR3=27
+  dR4=30k
+  DR5=23
+  DR6=2990
+  Rdc=0.16
+  ck=2.2pF
+  L1=8.6m
+  L2=5m
+  L3=410u
+  L4=5u
+  L5=279n
+  C1=5.7p
+  C2=15p
+  Rs1=49k
+  Rs2=15k
+  RS3=500
+  RS4=2500
+  RS5=1100
+  R2=10.41
.ends LF_MV_7446221010_10m
*****
.subckt LF_MV_7446221012_12m 1 2 3 4
X1  1  2  3  4  LF  PARAMS:
+  DL3=0.0000062
+  DL4=0.000000078
+  DC3=0.0000000000228
+  DC4=0.000000000048
+  DR3=27
+  dR4=18k
+  DR5=23
+  DR6=1990
+  Rdc=0.186
+  ck=2.2pF
+  L1=8.7m
+  L2=5m
+  L3=410u
+  L4=5u
+  L5=979n
+  C1=6.9p
+  C2=15p
+  Rs1=59k
+  Rs2=15k
+  RS3=500
+  RS4=2500
+  RS5=1100
+  R2=10.41
.ends LF_MV_7446221012_12m
*****
.subckt LF_MV_7446221027_27m 1 2 3 4
X1  1  2  3  4  LF  PARAMS:
+  DL3=0.0000128
+  DL4=0.00000019
+  DC3=0.0000000000228
+  DC4=0.000000000048
+  DR3=27
+  dR4=25k
+  DR5=23
+  DR6=5990
+  Rdc=0.46
+  ck=1.5pF
+  L1=32.7m
+  L2=5m
+  L3=0.41m
+  L4=5u
+  L5=769n
+  C1=6.9p
+  C2=15p
+  Rs1=110k
+  Rs2=65k
+  RS3=500
+  RS4=2500
+  RS5=1400
+  R2=10.41
.ends LF_MV_7446221027_27m
*****
.subckt LF_MV_7446220047_47m 1 2 3 4
X1  1  2  3  4  LF  PARAMS:
+  DL3=0.0000238
+  DL4=0.00000042
+  DC3=0.0000000000238
+  DC4=0.000000000048
+  DR3=27
+  dR4=70k
+  DR5=23
+  DR6=2990
+  Rdc=1.06
+  ck=1.3pF
+  L1=39m
+  L2=5m
+  L3=0.2m
+  L4=5u
+  L5=2u
+  C1=6.9p
+  C2=15p
+  Rs1=180k
+  Rs2=65k
+  RS3=500
+  RS4=2500
+  RS5=3500
+  R2=10.41
.ends LF_MV_7446220047_47m
*****
.subckt LF_LV_7446326002_1m8 1 2 3 4
X1  1  2  3  4  LF  PARAMS:
+  DL3=0.0000005
+  DL4=0.000000018
+  DC3=0.0000000000165
+  DC4=0.000000000014
+  DR3=27
+  dR4=6k
+  DR5=23
+  dR6=7k
+  Rdc=0.013
+  ck=0.8pF
+  L1=1.8m
+  L2=80u
+  L3=23u
+  L4=4u
+  L5=105n
+  C1=4.5p
+  C2=1.5p
+  RS1=4000
+  RS2=1600
+  RS3=1500
+  RS4=200
+  RS5=900
+  R2=1
.ends LF_LV_7446326002_1m8
*****
.subckt LF_LV_7446323003_2m7 1 2 3 4
X1  1  2  3  4  LF  PARAMS:
+  DL3=0.0000009
+  DL4=0.000000026
+  DC3=0.0000000000165
+  DC4=0.000000000014
+  DR3=27
+  dR4=8k
+  DR5=23
+  dR6=7k
+  Rdc=0.04
+  ck=1.8pF
+  L1=2.8m
+  L2=280u
+  L3=23u
+  L4=4u
+  L5=110n
+  C1=3.9p
+  C2=2.9p
+  RS1=5000
+  RS2=3200
+  RS3=1500
+  RS4=200
+  RS5=900
+  R2=1
.ends LF_LV_7446323003_2m7
*****
.subckt LF_LV_7446323004_4m 1 2 3 4
X1  1  2  3  4  LF  PARAMS:
+  DL3=0.00000145
+  DL4=0.000000048
+  DC3=0.00000000002
+  DC4=0.000000000018
+  DR3=27
+  dR4=11k
+  DR5=23
+  dR6=7k
+  Rdc=0.046
+  ck=2pF
+  L1=4.6m
+  L2=280u
+  L3=23u
+  L4=4u
+  L5=152n
+  C1=5.2p
+  C2=4.9p
+  Rs1=20k
+  RS2=2200
+  RS3=1500
+  RS4=200
+  RS5=950
+  R2=1
.ends LF_LV_7446323004_4m
*****
.subckt LF_LV_7446322007_6m8 1 2 3 4
X1  1  2  3  4  LF  PARAMS:
+  DL3=0.00000175
+  DL4=0.000000099
+  DC3=0.000000000017
+  DC4=0.000000000009
+  DR3=27
+  dR4=16k
+  DR5=23
+  dR6=6k
+  Rdc=0.106
+  ck=2pF
+  L1=6.6m
+  L2=280u
+  L3=23u
+  L4=4u
+  L5=230n
+  C1=5.1p
+  C2=4.9p
+  Rs1=34k
+  RS2=2200
+  RS3=1500
+  RS4=200
+  RS5=1250
+  R2=1
.ends LF_LV_7446322007_6m8
*****
.subckt LF_LV_7446322010_10m 1 2 3 4
X1  1  2  3  4  LF  PARAMS:
+  DL3=0.0000031
+  DL4=0.000000149
+  DC3=0.0000000000183
+  DC4=0.000000000012
+  DR3=27
+  dR4=16k
+  DR5=23
+  dR6=4k
+  Rdc=0.12
+  ck=2.2pF
+  L1=12m
+  L2=280u
+  L3=23u
+  L4=4u
+  L5=380n
+  C1=6.6p
+  C2=7.9p
+  Rs1=64k
+  RS2=1200
+  RS3=1500
+  RS4=200
+  RS5=1750
+  R2=1
.ends LF_LV_7446322010_10m
*****
.subckt LF_LV_7446321027_27m 1 2 3 4
X1  1  2  3  4  LF  PARAMS:
+  DL3=0.0000087
+  DL4=0.0000003
+  DC3=0.000000000026
+  DC4=0.000000000025
+  DR3=27
+  dR4=26k
+  DR5=23
+  dR6=4.4k
+  Rdc=0.426
+  ck=2.2pF
+  L1=24m
+  L2=280u
+  L3=23u
+  L4=4u
+  L5=700n
+  C1=7.5p
+  C2=9.9p
+  Rs1=64k
+  RS2=1200
+  RS3=1500
+  RS4=200
+  RS5=1550
+  R2=1
.ends LF_LV_7446321027_27m
*****
.subckt LF_LV_7446321033_33m 1 2 3 4
X1  1  2  3  4  LF  PARAMS:
+  DL3=0.0000097
+  DL4=0.00000028
+  DC3=0.000000000027
+  DC4=0.000000000025
+  DR3=27
+  dR4=26k
+  DR5=23
+  dR6=4.4k
+  Rdc=0.566
+  ck=2.8pF
+  L1=35m
+  L2=280u
+  L3=23u
+  L4=4u
+  L5=650n
+  C1=7.1p
+  C2=9.9p
+  Rs1=84k
+  RS2=1200
+  RS3=1500
+  RS4=200
+  RS5=2000
+  R2=1
.ends LF_LV_7446321033_33m
*****
.subckt LF_LV_7446321050_50m 1 2 3 4
X1  1  2  3  4  LF  PARAMS:
+  DL3=0.0000168
+  DL4=0.00000068
+  DC3=0.000000000023
+  DC4=0.000000000022
+  DR3=27
+  dR4=32k
+  DR5=23
+  dR6=6k
+  Rdc=0.8
+  ck=2.8pF
+  L1=60m
+  L2=4.2m
+  L3=23u
+  L4=4u
+  L5=1.2u
+  C1=8p
+  C2=16p
+  Rs1=220k
+  RS2=1200
+  RS3=1500
+  RS4=200
+  RS5=2500
+  R2=1
.ends LF_LV_7446321050_50m
*****
.subckt LF_XV_7446424002_2m2 1 2 3 4
X1  1  2  3  4  LF  PARAMS:
+  DL3=0.00000085
+  DL4=0.000000062
+  DC3=0.000000000018
+  DC4=0.000000000008
+  DR3=27
+  dR4=7k
+  DR5=23
+  DR6=2590
+  Rdc=0.025
+  ck=1.4pF
+  L1=1.5m
+  L2=0.28m
+  L3=23u
+  L4=4u
+  L5=130n
+  C1=4.5p
+  C2=4p
+  RS1=5500
+  RS2=2000
+  RS3=1000
+  RS4=200
+  RS5=600
+  R2=1
.ends LF_XV_7446424002_2m2
*****
.subckt LF_XV_7446424003_3m3 1 2 3 4
X1  1  2  3  4  LF  PARAMS:
+  DL3=0.00000145
+  DL4=0.000000062
+  DC3=0.000000000029
+  DC4=0.000000000027
+  DR3=27
+  dR4=10k
+  DR5=23
+  DR6=5590
+  Rdc=0.0566
+  ck=1.4pF
+  L1=2.5m
+  L2=0.28m
+  L3=23u
+  L4=4u
+  L5=260n
+  C1=5.5p
+  C2=3p
+  Rs1=14.5k
+  RS2=2400
+  RS3=400
+  RS4=200
+  RS5=1000
+  R2=1
.ends LF_XV_7446424003_3m3
*****
.subckt LF_XV_7446422007_6m8 1 2 3 4
X1  1  2  3  4  LF  PARAMS:
+  DL3=0.00000285
+  DL4=0.000000122
+  DC3=0.0000000000185
+  DC4=0.000000000017
+  DR3=27
+  dR4=15k
+  DR5=23
+  DR6=5590
+  Rdc=0.08
+  ck=0.9pF
+  L1=5.5m
+  L2=0.28m
+  L3=23u
+  L4=4u
+  L5=400n
+  C1=4.8p
+  C2=4.3p
+  Rs1=14.5k
+  RS2=5400
+  RS3=400
+  RS4=200
+  RS5=1600
+  R2=1
.ends LF_XV_7446422007_6m8
*****
.subckt LF_SH_74466240007_0m7 1 2 3 4
X1  1  2  3  4  LF  PARAMS:
+  DL3=0.00000031
+  DL4=0.00000002
+  DC3=0.0000000000075
+  DC4=0.0000000000008
+  DR3=17
+  dR4=4.5k
+  DR5=23
+  dR6=2k
+  Rdc=0.2
+  ck=2.3pF
+  L1=500u
+  L2=80u
+  L3=23u
+  L4=4u
+  L5=60n
+  C1=2.8p
+  C2=0.5p
+  RS1=5500
+  RS2=1400
+  RS3=400
+  RS4=200
+  RS5=800
+  R2=1
.ends LF_SH_74466240007_0m7
*****
.subckt LF_SH_7446622001_1m 1 2 3 4
X1  1  2  3  4  LF  PARAMS:
+  DL3=0.00000051
+  DL4=0.000000034
+  DC3=0.0000000000085
+  DC4=0.0000000000008
+  DR3=17
+  dR4=6k
+  DR5=23
+  dR6=1.5k
+  Rdc=0.04
+  ck=2pF
+  L1=1.2m
+  L2=120u
+  L3=23u
+  L4=4u
+  L5=90n
+  C1=3.1p
+  C2=0.7p
+  RS1=6500
+  RS2=1400
+  RS3=400
+  RS4=200
+  RS5=1000
+  R2=1
.ends LF_SH_7446622001_1m
*****
.subckt LF_SH_7446622002_2m2 1 2 3 4
X1  1  2  3  4  LF  PARAMS:
+  DL3=0.0000009
+  DL4=0.000000044
+  DC3=0.000000000011
+  DC4=0.0000000000065
+  DR3=17
+  dR4=8k
+  DR5=23
+  dR6=1.5k
+  Rdc=0.066
+  ck=1.5pF
+  L1=2m
+  L2=620u
+  L3=23u
+  L4=4u
+  L5=120n
+  C1=3.7p
+  C2=2p
+  Rs1=10k
+  RS2=6400
+  RS3=400
+  RS4=200
+  RS5=1000
+  R2=1
.ends LF_SH_7446622002_2m2
*****
.subckt LF_SH_7446622003_3m3 1 2 3 4
X1  1  2  3  4  LF  PARAMS:
+  DL3=0.0000016
+  DL4=0.000000044
+  DC3=0.000000000008
+  DC4=0.000000000013
+  DR3=17
+  dR4=12k
+  DR5=23
+  dR6=1k
+  Rdc=0.106
+  ck=1.5pF
+  L1=4m
+  L2=620u
+  L3=23u
+  L4=4u
+  L5=110n
+  C1=3.9p
+  C2=4p
+  Rs1=17k
+  RS2=9400
+  RS3=400
+  RS4=200
+  RS5=1100
+  R2=1
.ends LF_SH_7446622003_3m3
*****
.subckt LF_SH_7446621007_6m8 1 2 3 4
X1  1  2  3  4  LF  PARAMS:
+  DL3=0.000003
+  DL4=0.000000056
+  DC3=0.0000000000132
+  DC4=0.000000000024
+  DR3=17
+  dR4=15k
+  DR5=23
+  dR6=5k
+  Rdc=0.2
+  ck=1pF
+  L1=7m
+  L2=820u
+  L3=23u
+  L4=4u
+  L5=300n
+  C1=4.2p
+  C2=7p
+  Rs1=35k
+  Rs2=12k
+  RS3=400
+  RS4=200
+  RS5=1400
+  R2=1
.ends LF_SH_7446621007_6m8
*****
.subckt LF_SH_7446621010_10m 1 2 3 4
X1  1  2  3  4  LF  PARAMS:
+  DL3=0.0000053
+  DL4=0.000000096
+  DC3=0.0000000000097
+  DC4=0.000000000036
+  DR3=17
+  dR4=25k
+  DR5=23
+  dR6=6k
+  Rdc=0.36
+  ck=1pF
+  L1=12m
+  L2=1.3m
+  L3=23u
+  L4=4u
+  L5=300n
+  C1=4.4p
+  C2=7p
+  Rs1=58k
+  Rs2=12k
+  RS3=400
+  RS4=200
+  RS5=1400
+  R2=1
.ends LF_SH_7446621010_10m
*****
.subckt LF_SH_7446620015_15m 1 2 3 4
X1  1  2  3  4  LF  PARAMS:
+  DL3=0.0000075
+  DL4=0.00000019
+  DC3=0.0000000000125
+  DC4=0.000000000028
+  DR3=17
+  dR4=35k
+  DR5=23
+  dR6=6k
+  Rdc=0.553
+  ck=1pF
+  L1=14m
+  L2=1.3m
+  L3=23u
+  L4=4u
+  L5=540n
+  C1=5.3p
+  C2=9p
+  Rs1=110k
+  Rs2=42k
+  RS3=400
+  RS4=200
+  RS5=1900
+  R2=1
.ends LF_SH_7446620015_15m
*****
.subckt LF_SH_7446620027_27m 1 2 3 4
X1  1  2  3  4  LF  PARAMS:
+  DL3=0.000012
+  DL4=0.00000025
+  DC3=0.0000000000185
+  DC4=0.000000000037
+  DR3=17
+  dR4=35k
+  DR5=23
+  dR6=2k
+  Rdc=0.8
+  ck=1.2pF
+  L1=30m
+  L2=1.2m
+  L3=23u
+  L4=4u
+  L5=0.9u
+  C1=5.9p
+  C2=12p
+  Rs1=160k
+  Rs2=42k
+  RS3=400
+  RS4=200
+  RS5=1700
+  R2=1
.ends LF_SH_7446620027_27m
*****
.subckt LF_SH_7446620039_39m 1 2 3 4
X1  1  2  3  4  LF  PARAMS:
+  DL3=0.000016
+  DL4=0.000000325
+  DC3=0.00000000001
+  DC4=0.000000000037
+  DR3=17
+  dR4=35k
+  DR5=23
+  dR6=12k
+  Rdc=0.8
+  ck=2.2pF
+  L1=33m
+  L2=1.3m
+  L3=23u
+  L4=4u
+  L5=1200n
+  C1=5.1p
+  C2=13p
+  Rs1=180k
+  Rs2=42k
+  RS3=400
+  RS4=200
+  RS5=1700
+  R2=1
.ends LF_SH_7446620039_39m
*****
.subckt LF_MH_7446723001_1m2 1 2 3 4
X1  1  2  3  4  LF  PARAMS:
+  DL3=0.00000055
+  DL4=0.000000019
+  DC3=0.0000000000107
+  DC4=0.000000000014
+  DR3=17
+  dR4=5.5k
+  DR5=23
+  dR6=3k
+  Rdc=0.0266
+  ck=1pF
+  L1=1m
+  L2=0.3m
+  L3=23u
+  L4=4u
+  L5=120n
+  C1=3.1p
+  C2=0.5p
+  RS1=5500
+  RS2=800
+  RS3=100
+  RS4=100
+  RS5=1100
+  R2=1
.ends LF_MH_7446723001_1m2
*****
.subckt LF_MH_7446722002_2m2 1 2 3 4
X1  1  2  3  4  LF  PARAMS:
+  DL3=0.000001
+  DL4=0.000000049
+  DC3=0.0000000000115
+  DC4=0.0000000000045
+  DR3=17
+  dR4=8k
+  DR5=23
+  dR6=2k
+  Rdc=0.04
+  ck=3pF
+  L1=2m
+  L2=0.3m
+  L3=0.1m
+  L4=40u
+  L5=190n
+  C1=3.3p
+  C2=0.5p
+  Rs1=12.5k
+  RS2=1800
+  RS3=400
+  RS4=200
+  RS5=600
+  R2=1
.ends LF_MH_7446722002_2m2
*****
.subckt LF_MH_7446722004_4m2 1 2 3 4
X1  1  2  3  4  LF  PARAMS:
+  DL3=0.0000021
+  DL4=0.000000095
+  DC3=0.0000000000155
+  DC4=0.0000000000055
+  DR3=17
+  dR4=14k
+  DR5=23
+  dR6=2.5k
+  Rdc=0.08
+  ck=3pF
+  L1=4m
+  L2=0.97m
+  L3=0.403m
+  L4=200u
+  L5=180n
+  C1=5p
+  C2=8p
+  Rs1=25.5k
+  RS2=9800
+  RS3=400
+  RS4=200
+  RS5=1000
+  R2=1
.ends LF_MH_7446722004_4m2
*****
.subckt LF_MH_7446722007_6m8 1 2 3 4
X1  1  2  3  4  LF  PARAMS:
+  DL3=0.000003
+  DL4=0.000000165
+  DC3=0.0000000000125
+  DC4=0.000000000007
+  DR3=17
+  dR4=19k
+  DR5=23
+  dR6=3.5k
+  Rdc=0.133
+  ck=3pF
+  L1=7m
+  L2=0.97m
+  L3=0.403m
+  L4=0.200m
+  L5=330n
+  C1=6.4p
+  C2=8p
+  Rs1=49.5k
+  RS2=9800
+  RS3=400
+  RS4=200
+  RS5=1400
+  R2=1
.ends LF_MH_7446722007_6m8
*****
.subckt LF_MH_7446721010_10m 1 2 3 4
X1  1  2  3  4  LF  PARAMS:
+  DL3=0.000005
+  DL4=0.000000205
+  DC3=0.0000000000122
+  DC4=0.000000000009
+  DR3=17
+  dR4=22k
+  DR5=23
+  dR6=1k
+  Rdc=0.166
+  ck=3pF
+  L1=9.4m
+  L2=1.27m
+  L3=403u
+  L4=200u
+  L5=330n
+  C1=7.4p
+  C2=8p
+  Rs1=49.5k
+  RS2=9800
+  RS3=400
+  RS4=200
+  RS5=1400
+  R2=1
.ends LF_MH_7446721010_10m
*****
.subckt LF_MH_7446721027_27m 1 2 3 4
X1  1  2  3  4  LF  PARAMS:
+  DL3=0.0000125
+  DL4=0.000000375
+  DC3=0.000000000021
+  DC4=0.000000000019
+  DR3=17
+  dR4=24k
+  DR5=23
+  dR6=2.5k
+  Rdc=0.466
+  ck=3pF
+  L1=30m
+  L2=2.2m
+  L3=403u
+  L4=200u
+  L5=730n
+  C1=6.4p
+  C2=12p
+  Rs1=189k
+  Rs2=19k
+  RS3=400
+  RS4=200
+  RS5=1800
+  R2=1
.ends LF_MH_7446721027_27m
*****
.subckt LF_MH_7446720447_47m 1 2 3 4
X1  1  2  3  4  LF  PARAMS:
+  DL3=0.000025
+  DL4=0.000000575
+  DC3=0.0000000000225
+  DC4=0.000000000028
+  DR3=17
+  dR4=30k
+  DR5=23
+  dR6=4k
+  Rdc=1.06
+  ck=3pF
+  L1=49m
+  L2=2.27m
+  L3=403u
+  L4=200u
+  L5=1630n
+  C1=6.4p
+  C2=18p
+  Rs1=249.5k
+  Rs2=29.8k
+  RS3=400
+  RS4=200
+  RS5=1900
+  R2=1
.ends LF_MH_7446720447_47m
*****
.subckt LF_LH_7446823003_2m7 1 2 3 4
X1  1  2  3  4  LF  PARAMS:
+  DL3=0.00000085
+  DL4=0.000000034
+  DC3=0.000000000014
+  DC4=0.000000000012
+  DR3=27
+  dR4=10k
+  DR5=23
+  DR6=3590
+  Rdc=0.04
+  ck=1.1pF
+  L1=2m
+  L2=0.27m
+  L3=43u
+  L4=20u
+  L5=130n
+  C1=3.4p
+  C2=2p
+  RS1=6500
+  RS2=200
+  RS3=400
+  RS4=400
+  RS5=1400
+  R2=1
.ends LF_LH_7446823003_2m7
*****
.subckt LF_LH_7446822006_5m6 1 2 3 4
X1  1  2  3  4  LF  PARAMS:
+  DL3=0.000002
+  DL4=0.000000062
+  DC3=0.000000000021
+  DC4=0.000000000027
+  DR3=27
+  dR4=13k
+  DR5=23
+  dR6=14k
+  Rdc=0.106
+  ck=0.9pF
+  L1=5m
+  L2=2m
+  L3=1m
+  L4=0.5m
+  L5=238n
+  C1=4.9p
+  C2=5p
+  Rs1=16.5k
+  RS2=200
+  RS3=400
+  RS4=400
+  RS5=1600
+  R2=1
.ends LF_LH_7446822006_5m6
*****
.subckt LF_LH_7446823006_5m6 1 2 3 4
X1  1  2  3  4  LF  PARAMS:
+  DL3=0.0000019
+  DL4=0.00000005
+  DC3=0.000000000022
+  DC4=0.000000000021
+  DR3=27
+  dR4=13k
+  DR5=23
+  dR6=14k
+  Rdc=0.06
+  ck=0.9pF
+  L1=6m
+  L2=2m
+  L3=1m
+  L4=0.5m
+  L5=180n
+  C1=5.4p
+  C2=5p
+  Rs1=22.5k
+  RS2=200
+  RS3=400
+  RS4=400
+  RS5=1000
+  R2=1
.ends LF_LH_7446823006_5m6
*****
.subckt LF_LH_7446821027_27m 1 2 3 4
X1  1  2  3  4  LF  PARAMS:
+  DL3=0.0000092
+  DL4=0.00000033
+  DC3=0.000000000031
+  DC4=0.000000000025
+  DR3=27
+  dR4=23k
+  DR5=23
+  dR6=3k
+  Rdc=0.426
+  ck=0.9pF
+  L1=22m
+  L2=12m
+  L3=5m
+  L4=2.5m
+  L5=680n
+  C1=8.8p
+  C2=12p
+  Rs1=99.5k
+  Rs2=22.2k
+  RS3=400
+  RS4=400
+  RS5=1800
+  R2=1
.ends LF_LH_7446821027_27m
*****
.subckt LF_XH_7446926002_1m8 1 2 3 4
X1  1  2  3  4  LF  PARAMS:
+  DL3=0.00000073
+  DL4=0.000000053
+  DC3=0.00000000002
+  DC4=0.0000000000084
+  DR3=17
+  dR4=6k
+  DR5=23
+  dR6=1.2k
+  Rdc=0.02
+  ck=1pF
+  L1=1.2m
+  L2=0.8m
+  L3=150u
+  L4=125u
+  L5=128n
+  C1=4.8p
+  C2=3p
+  RS1=6900
+  RS2=3500
+  RS3=400
+  RS4=400
+  RS5=600
+  R2=1
.ends LF_XH_7446926002_1m8
*****
.subckt LF_XH_7446924003_3m3 1 2 3 4
X1  1  2  3  4  LF26  PARAMS:
+  L1=0.00196289392486891
+  L2=1.00000000001427E-06
+  L3=0.000362784502684758
+  L4=0.000826806877150703
+  L5=0.0000252879136448232
+  L6=1n  
+  C1=5.52336505663546E-12
+  C2=3.21929744946232E-11
+  C3=0.000000000001
+  RS1=8043.06001702957
+  RS2=7280.08333963672
+  RS3=3663.93618097763
+  RS4=5994.7324618714
+  RS5=1592.20878782089
+  RS6=1
+  R2=26.8683635170806
+  DL3=0.00000157
+  DL4=0.000000068
+  DC3=0.0000000000157
+  DC4=0.0000000000124
+  DR3=17
+  dR4=8.8k  
+  DR5=50
+  dR6=55.2k  
+  Rdc=0.0466
+  ck=1pF  
.ends LF_XH_7446924003_3m3
*****
.subckt LF_XH_7446923010_10m 1 2 3 4
X1  1  2  3  4  LF26  PARAMS:
+  L1=11m  
+  L2=0.08m  
+  L3=155m  
+  L4=162.5m  
+  L5=1090n  
+  L6=1.99964526241581E-07
+  C1=47p  
+  C2=43p  
+  C3=2.529379663444E-12
+  Rs1=110k  
+  RS2=400
+  RS3=400
+  RS4=400
+  RS5=570
+  RS6=1
+  R2=1.4422510600994
+  DL3=0.000005
+  DL4=0.000000145
+  DC3=0.000000000044
+  DC4=0.0000000000484
+  DR3=17
+  dR4=12k  
+  DR5=23
+  dR6=.6k  
+  Rdc=0.073
+  ck=1pF  
.ends LF_XH_7446923010_10m
*****
.subckt LF_XH_7446921027_27m 1 2 3 4
X1  1  2  3  4  LF  PARAMS:
+  DL3=0.0000143
+  DL4=0.000000345
+  DC3=0.000000000021
+  DC4=0.0000000000484
+  DR3=17
+  dR4=26k
+  DR5=23
+  dR6=5k
+  Rdc=0.266
+  ck=1pF
+  L1=22m
+  L2=5m
+  L3=5m
+  L4=2.5m
+  L5=890n
+  C1=9p
+  C2=13p
+  Rs1=140k
+  Rs2=45k
+  RS3=400
+  RS4=400
+  RS5=2400
+  R2=1
.ends LF_XH_7446921027_27m
