**************************************************
* Manufacturer:           Wurth Elektronik 
* Kinds:                  Three-Phase Common Mode Power Line Choke
* Matchcode:              WE-TPB 
* Library Type:           LTspice
* Version:                rev22a
* Created/modified by:    Ella      
* Date and Time:          2022-05-26
* Team:                   eiSos EDA Service  
* Contact:                libraries@we-online.com
**************************************************
* Copyright(C) 2022 Würth Elektronik eiSos GmbH & Co. KG
* All Rights Reserved.
**************************************************
* Disclaimer: While Würth Elektronik eiSos has made every reasonable effort to ensure the accuracy
* of the simulation models provided, Würth Elektronik eiSos does not guarantee the exemption of error on
* the simulation models, nor does Würth Elektronik eiSos guarantee that the simulation model is current.
* Würth Elektronik eiSos reserves the right to make any adjustments at any time without notice.
* Würth Elektronik eiSos expressly disclaims all implied warranties regarding this simulation model.
**************************************************
.subckt 744833005240 1 2 3 4 5 6
Vam1 1 n2 dc 0
Rport1 n2 0 50
Vam2 2 n4 dc 0
Rport2 n4 0 50
Vam3 3 n6 dc 0
Rport3 n6 0 50
Vam4 4 n8 dc 0
Rport4 n8 0 50
Vam5 5 n10 dc 0
Rport5 n10 0 50
Vam6 6 n12 dc 0
Rport6 n12 0 50

Fi1 0 ni1 Vam1 50
Gi1 0 ni1 1 0 1
Rt1 ni1 0 1
Fi2 0 ni2 Vam2 50
Gi2 0 ni2 2 0 1
Rt2 ni2 0 1
Fi3 0 ni3 Vam3 50
Gi3 0 ni3 3 0 1
Rt3 ni3 0 1
Fi4 0 ni4 Vam4 50
Gi4 0 ni4 4 0 1
Rt4 ni4 0 1
Fi5 0 ni5 Vam5 50
Gi5 0 ni5 5 0 1
Rt5 ni5 0 1
Fi6 0 ni6 Vam6 50
Gi6 0 ni6 6 0 1
Rt6 ni6 0 1

Ca1 ns1 0 1e-012
Ra1 ns1 0 262410420.914
Ca2 ns2 0 1e-012
Ra2 ns2 0 16360593.1152
Ca3 ns3 0 1e-012
Ra3 ns3 0 7450187.22211
Ca4 ns4 0 1e-012
Ra4 ns4 0 482889.219939
Ca5 ns5 0 1e-012
Ca6 ns6 0 1e-012
Ra5 ns5 0 3178807.98814
Ra6 ns6 0 3178807.98814
Ga5 ns5 0 ns6 0 -8.05370424866e-006
Ga6 ns6 0 ns5 0 8.05370424866e-006
Ca7 ns7 0 1e-012
Ra7 ns7 0 78592.2262071
Ca8 ns8 0 1e-012
Ra8 ns8 0 26063.5943057
Ca9 ns9 0 1e-012
Ca10 ns10 0 1e-012
Ra9 ns9 0 18032.7608079
Ra10 ns10 0 18032.7608079
Ga9 ns9 0 ns10 0 5.67204692722e-006
Ga10 ns10 0 ns9 0 -5.67204692722e-006
Ca11 ns11 0 1e-012
Ra11 ns11 0 2475.71988514
Ca12 ns12 0 1e-012
Ca13 ns13 0 1e-012
Ra12 ns12 0 4595.59837407
Ra13 ns13 0 4595.59837407
Ga12 ns12 0 ns13 0 0.000715150699712
Ga13 ns13 0 ns12 0 -0.000715150699712
Ca14 ns14 0 1e-012
Ca15 ns15 0 1e-012
Ra14 ns14 0 3821.80080974
Ra15 ns15 0 3821.80080974
Ga14 ns14 0 ns15 0 0.000731480112776
Ga15 ns15 0 ns14 0 -0.000731480112776
Ca16 ns16 0 1e-012
Ca17 ns17 0 1e-012
Ra16 ns16 0 38119.6325933
Ra17 ns17 0 38119.6325933
Ga16 ns16 0 ns17 0 0.000800833624449
Ga17 ns17 0 ns16 0 -0.000800833624449
Ca18 ns18 0 1e-012
Ca19 ns19 0 1e-012
Ra18 ns18 0 27657.3095937
Ra19 ns19 0 27657.3095937
Ga18 ns18 0 ns19 0 0.000990021424588
Ga19 ns19 0 ns18 0 -0.000990021424588
Ca20 ns20 0 1e-012
Ca21 ns21 0 1e-012
Ra20 ns20 0 1021.84714331
Ra21 ns21 0 1021.84714331
Ga20 ns20 0 ns21 0 -0.000575085083328
Ga21 ns21 0 ns20 0 0.000575085083328
Ca22 ns22 0 1e-012
Ca23 ns23 0 1e-012
Ra22 ns22 0 4576.16665122
Ra23 ns23 0 4576.16665122
Ga22 ns22 0 ns23 0 0.00137480973644
Ga23 ns23 0 ns22 0 -0.00137480973644
Ca24 ns24 0 1e-012
Ca25 ns25 0 1e-012
Ra24 ns24 0 24419.9145383
Ra25 ns25 0 24419.9145383
Ga24 ns24 0 ns25 0 0.00143622065148
Ga25 ns25 0 ns24 0 -0.00143622065148
Ca26 ns26 0 1e-012
Ca27 ns27 0 1e-012
Ra26 ns26 0 10866.227104
Ra27 ns27 0 10866.227104
Ga26 ns26 0 ns27 0 0.00195075799473
Ga27 ns27 0 ns26 0 -0.00195075799473
Ca28 ns28 0 1e-012
Ca29 ns29 0 1e-012
Ra28 ns28 0 1536.49223219
Ra29 ns29 0 1536.49223219
Ga28 ns28 0 ns29 0 0.00192521311741
Ga29 ns29 0 ns28 0 -0.00192521311741
Ca30 ns30 0 1e-012
Ca31 ns31 0 1e-012
Ra30 ns30 0 2025.51403767
Ra31 ns31 0 2025.51403767
Ga30 ns30 0 ns31 0 0.00215175337384
Ga31 ns31 0 ns30 0 -0.00215175337384
Ca32 ns32 0 1e-012
Ca33 ns33 0 1e-012
Ra32 ns32 0 5295.98860587
Ra33 ns33 0 5295.98860587
Ga32 ns32 0 ns33 0 -0.00260845931481
Ga33 ns33 0 ns32 0 0.00260845931481
Ca34 ns34 0 1e-012
Ca35 ns35 0 1e-012
Ra34 ns34 0 1371.66069475
Ra35 ns35 0 1371.66069475
Ga34 ns34 0 ns35 0 -0.00263050707209
Ga35 ns35 0 ns34 0 0.00263050707209
Ca36 ns36 0 1e-012
Ca37 ns37 0 1e-012
Ra36 ns36 0 2110.44338255
Ra37 ns37 0 2110.44338255
Ga36 ns36 0 ns37 0 0.00335743763387
Ga37 ns37 0 ns36 0 -0.00335743763387
Ca38 ns38 0 1e-012
Ra38 ns38 0 262410420.914
Ca39 ns39 0 1e-012
Ra39 ns39 0 16360593.1152
Ca40 ns40 0 1e-012
Ra40 ns40 0 7450187.22211
Ca41 ns41 0 1e-012
Ra41 ns41 0 482889.219939
Ca42 ns42 0 1e-012
Ca43 ns43 0 1e-012
Ra42 ns42 0 3178807.98814
Ra43 ns43 0 3178807.98814
Ga42 ns42 0 ns43 0 -8.05370424866e-006
Ga43 ns43 0 ns42 0 8.05370424866e-006
Ca44 ns44 0 1e-012
Ra44 ns44 0 78592.2262071
Ca45 ns45 0 1e-012
Ra45 ns45 0 26063.5943057
Ca46 ns46 0 1e-012
Ca47 ns47 0 1e-012
Ra46 ns46 0 18032.7608079
Ra47 ns47 0 18032.7608079
Ga46 ns46 0 ns47 0 5.67204692722e-006
Ga47 ns47 0 ns46 0 -5.67204692722e-006
Ca48 ns48 0 1e-012
Ra48 ns48 0 2475.71988514
Ca49 ns49 0 1e-012
Ca50 ns50 0 1e-012
Ra49 ns49 0 4595.59837407
Ra50 ns50 0 4595.59837407
Ga49 ns49 0 ns50 0 0.000715150699712
Ga50 ns50 0 ns49 0 -0.000715150699712
Ca51 ns51 0 1e-012
Ca52 ns52 0 1e-012
Ra51 ns51 0 3821.80080974
Ra52 ns52 0 3821.80080974
Ga51 ns51 0 ns52 0 0.000731480112776
Ga52 ns52 0 ns51 0 -0.000731480112776
Ca53 ns53 0 1e-012
Ca54 ns54 0 1e-012
Ra53 ns53 0 38119.6325933
Ra54 ns54 0 38119.6325933
Ga53 ns53 0 ns54 0 0.000800833624449
Ga54 ns54 0 ns53 0 -0.000800833624449
Ca55 ns55 0 1e-012
Ca56 ns56 0 1e-012
Ra55 ns55 0 27657.3095937
Ra56 ns56 0 27657.3095937
Ga55 ns55 0 ns56 0 0.000990021424588
Ga56 ns56 0 ns55 0 -0.000990021424588
Ca57 ns57 0 1e-012
Ca58 ns58 0 1e-012
Ra57 ns57 0 1021.84714331
Ra58 ns58 0 1021.84714331
Ga57 ns57 0 ns58 0 -0.000575085083328
Ga58 ns58 0 ns57 0 0.000575085083328
Ca59 ns59 0 1e-012
Ca60 ns60 0 1e-012
Ra59 ns59 0 4576.16665122
Ra60 ns60 0 4576.16665122
Ga59 ns59 0 ns60 0 0.00137480973644
Ga60 ns60 0 ns59 0 -0.00137480973644
Ca61 ns61 0 1e-012
Ca62 ns62 0 1e-012
Ra61 ns61 0 24419.9145383
Ra62 ns62 0 24419.9145383
Ga61 ns61 0 ns62 0 0.00143622065148
Ga62 ns62 0 ns61 0 -0.00143622065148
Ca63 ns63 0 1e-012
Ca64 ns64 0 1e-012
Ra63 ns63 0 10866.227104
Ra64 ns64 0 10866.227104
Ga63 ns63 0 ns64 0 0.00195075799473
Ga64 ns64 0 ns63 0 -0.00195075799473
Ca65 ns65 0 1e-012
Ca66 ns66 0 1e-012
Ra65 ns65 0 1536.49223219
Ra66 ns66 0 1536.49223219
Ga65 ns65 0 ns66 0 0.00192521311741
Ga66 ns66 0 ns65 0 -0.00192521311741
Ca67 ns67 0 1e-012
Ca68 ns68 0 1e-012
Ra67 ns67 0 2025.51403767
Ra68 ns68 0 2025.51403767
Ga67 ns67 0 ns68 0 0.00215175337384
Ga68 ns68 0 ns67 0 -0.00215175337384
Ca69 ns69 0 1e-012
Ca70 ns70 0 1e-012
Ra69 ns69 0 5295.98860587
Ra70 ns70 0 5295.98860587
Ga69 ns69 0 ns70 0 -0.00260845931481
Ga70 ns70 0 ns69 0 0.00260845931481
Ca71 ns71 0 1e-012
Ca72 ns72 0 1e-012
Ra71 ns71 0 1371.66069475
Ra72 ns72 0 1371.66069475
Ga71 ns71 0 ns72 0 -0.00263050707209
Ga72 ns72 0 ns71 0 0.00263050707209
Ca73 ns73 0 1e-012
Ca74 ns74 0 1e-012
Ra73 ns73 0 2110.44338255
Ra74 ns74 0 2110.44338255
Ga73 ns73 0 ns74 0 0.00335743763387
Ga74 ns74 0 ns73 0 -0.00335743763387
Ca75 ns75 0 1e-012
Ra75 ns75 0 262410420.914
Ca76 ns76 0 1e-012
Ra76 ns76 0 16360593.1152
Ca77 ns77 0 1e-012
Ra77 ns77 0 7450187.22211
Ca78 ns78 0 1e-012
Ra78 ns78 0 482889.219939
Ca79 ns79 0 1e-012
Ca80 ns80 0 1e-012
Ra79 ns79 0 3178807.98814
Ra80 ns80 0 3178807.98814
Ga79 ns79 0 ns80 0 -8.05370424866e-006
Ga80 ns80 0 ns79 0 8.05370424866e-006
Ca81 ns81 0 1e-012
Ra81 ns81 0 78592.2262071
Ca82 ns82 0 1e-012
Ra82 ns82 0 26063.5943057
Ca83 ns83 0 1e-012
Ca84 ns84 0 1e-012
Ra83 ns83 0 18032.7608079
Ra84 ns84 0 18032.7608079
Ga83 ns83 0 ns84 0 5.67204692722e-006
Ga84 ns84 0 ns83 0 -5.67204692722e-006
Ca85 ns85 0 1e-012
Ra85 ns85 0 2475.71988514
Ca86 ns86 0 1e-012
Ca87 ns87 0 1e-012
Ra86 ns86 0 4595.59837407
Ra87 ns87 0 4595.59837407
Ga86 ns86 0 ns87 0 0.000715150699712
Ga87 ns87 0 ns86 0 -0.000715150699712
Ca88 ns88 0 1e-012
Ca89 ns89 0 1e-012
Ra88 ns88 0 3821.80080974
Ra89 ns89 0 3821.80080974
Ga88 ns88 0 ns89 0 0.000731480112776
Ga89 ns89 0 ns88 0 -0.000731480112776
Ca90 ns90 0 1e-012
Ca91 ns91 0 1e-012
Ra90 ns90 0 38119.6325933
Ra91 ns91 0 38119.6325933
Ga90 ns90 0 ns91 0 0.000800833624449
Ga91 ns91 0 ns90 0 -0.000800833624449
Ca92 ns92 0 1e-012
Ca93 ns93 0 1e-012
Ra92 ns92 0 27657.3095937
Ra93 ns93 0 27657.3095937
Ga92 ns92 0 ns93 0 0.000990021424588
Ga93 ns93 0 ns92 0 -0.000990021424588
Ca94 ns94 0 1e-012
Ca95 ns95 0 1e-012
Ra94 ns94 0 1021.84714331
Ra95 ns95 0 1021.84714331
Ga94 ns94 0 ns95 0 -0.000575085083328
Ga95 ns95 0 ns94 0 0.000575085083328
Ca96 ns96 0 1e-012
Ca97 ns97 0 1e-012
Ra96 ns96 0 4576.16665122
Ra97 ns97 0 4576.16665122
Ga96 ns96 0 ns97 0 0.00137480973644
Ga97 ns97 0 ns96 0 -0.00137480973644
Ca98 ns98 0 1e-012
Ca99 ns99 0 1e-012
Ra98 ns98 0 24419.9145383
Ra99 ns99 0 24419.9145383
Ga98 ns98 0 ns99 0 0.00143622065148
Ga99 ns99 0 ns98 0 -0.00143622065148
Ca100 ns100 0 1e-012
Ca101 ns101 0 1e-012
Ra100 ns100 0 10866.227104
Ra101 ns101 0 10866.227104
Ga100 ns100 0 ns101 0 0.00195075799473
Ga101 ns101 0 ns100 0 -0.00195075799473
Ca102 ns102 0 1e-012
Ca103 ns103 0 1e-012
Ra102 ns102 0 1536.49223219
Ra103 ns103 0 1536.49223219
Ga102 ns102 0 ns103 0 0.00192521311741
Ga103 ns103 0 ns102 0 -0.00192521311741
Ca104 ns104 0 1e-012
Ca105 ns105 0 1e-012
Ra104 ns104 0 2025.51403767
Ra105 ns105 0 2025.51403767
Ga104 ns104 0 ns105 0 0.00215175337384
Ga105 ns105 0 ns104 0 -0.00215175337384
Ca106 ns106 0 1e-012
Ca107 ns107 0 1e-012
Ra106 ns106 0 5295.98860587
Ra107 ns107 0 5295.98860587
Ga106 ns106 0 ns107 0 -0.00260845931481
Ga107 ns107 0 ns106 0 0.00260845931481
Ca108 ns108 0 1e-012
Ca109 ns109 0 1e-012
Ra108 ns108 0 1371.66069475
Ra109 ns109 0 1371.66069475
Ga108 ns108 0 ns109 0 -0.00263050707209
Ga109 ns109 0 ns108 0 0.00263050707209
Ca110 ns110 0 1e-012
Ca111 ns111 0 1e-012
Ra110 ns110 0 2110.44338255
Ra111 ns111 0 2110.44338255
Ga110 ns110 0 ns111 0 0.00335743763387
Ga111 ns111 0 ns110 0 -0.00335743763387
Ca112 ns112 0 1e-012
Ra112 ns112 0 262410420.914
Ca113 ns113 0 1e-012
Ra113 ns113 0 16360593.1152
Ca114 ns114 0 1e-012
Ra114 ns114 0 7450187.22211
Ca115 ns115 0 1e-012
Ra115 ns115 0 482889.219939
Ca116 ns116 0 1e-012
Ca117 ns117 0 1e-012
Ra116 ns116 0 3178807.98814
Ra117 ns117 0 3178807.98814
Ga116 ns116 0 ns117 0 -8.05370424866e-006
Ga117 ns117 0 ns116 0 8.05370424866e-006
Ca118 ns118 0 1e-012
Ra118 ns118 0 78592.2262071
Ca119 ns119 0 1e-012
Ra119 ns119 0 26063.5943057
Ca120 ns120 0 1e-012
Ca121 ns121 0 1e-012
Ra120 ns120 0 18032.7608079
Ra121 ns121 0 18032.7608079
Ga120 ns120 0 ns121 0 5.67204692722e-006
Ga121 ns121 0 ns120 0 -5.67204692722e-006
Ca122 ns122 0 1e-012
Ra122 ns122 0 2475.71988514
Ca123 ns123 0 1e-012
Ca124 ns124 0 1e-012
Ra123 ns123 0 4595.59837407
Ra124 ns124 0 4595.59837407
Ga123 ns123 0 ns124 0 0.000715150699712
Ga124 ns124 0 ns123 0 -0.000715150699712
Ca125 ns125 0 1e-012
Ca126 ns126 0 1e-012
Ra125 ns125 0 3821.80080974
Ra126 ns126 0 3821.80080974
Ga125 ns125 0 ns126 0 0.000731480112776
Ga126 ns126 0 ns125 0 -0.000731480112776
Ca127 ns127 0 1e-012
Ca128 ns128 0 1e-012
Ra127 ns127 0 38119.6325933
Ra128 ns128 0 38119.6325933
Ga127 ns127 0 ns128 0 0.000800833624449
Ga128 ns128 0 ns127 0 -0.000800833624449
Ca129 ns129 0 1e-012
Ca130 ns130 0 1e-012
Ra129 ns129 0 27657.3095937
Ra130 ns130 0 27657.3095937
Ga129 ns129 0 ns130 0 0.000990021424588
Ga130 ns130 0 ns129 0 -0.000990021424588
Ca131 ns131 0 1e-012
Ca132 ns132 0 1e-012
Ra131 ns131 0 1021.84714331
Ra132 ns132 0 1021.84714331
Ga131 ns131 0 ns132 0 -0.000575085083328
Ga132 ns132 0 ns131 0 0.000575085083328
Ca133 ns133 0 1e-012
Ca134 ns134 0 1e-012
Ra133 ns133 0 4576.16665122
Ra134 ns134 0 4576.16665122
Ga133 ns133 0 ns134 0 0.00137480973644
Ga134 ns134 0 ns133 0 -0.00137480973644
Ca135 ns135 0 1e-012
Ca136 ns136 0 1e-012
Ra135 ns135 0 24419.9145383
Ra136 ns136 0 24419.9145383
Ga135 ns135 0 ns136 0 0.00143622065148
Ga136 ns136 0 ns135 0 -0.00143622065148
Ca137 ns137 0 1e-012
Ca138 ns138 0 1e-012
Ra137 ns137 0 10866.227104
Ra138 ns138 0 10866.227104
Ga137 ns137 0 ns138 0 0.00195075799473
Ga138 ns138 0 ns137 0 -0.00195075799473
Ca139 ns139 0 1e-012
Ca140 ns140 0 1e-012
Ra139 ns139 0 1536.49223219
Ra140 ns140 0 1536.49223219
Ga139 ns139 0 ns140 0 0.00192521311741
Ga140 ns140 0 ns139 0 -0.00192521311741
Ca141 ns141 0 1e-012
Ca142 ns142 0 1e-012
Ra141 ns141 0 2025.51403767
Ra142 ns142 0 2025.51403767
Ga141 ns141 0 ns142 0 0.00215175337384
Ga142 ns142 0 ns141 0 -0.00215175337384
Ca143 ns143 0 1e-012
Ca144 ns144 0 1e-012
Ra143 ns143 0 5295.98860587
Ra144 ns144 0 5295.98860587
Ga143 ns143 0 ns144 0 -0.00260845931481
Ga144 ns144 0 ns143 0 0.00260845931481
Ca145 ns145 0 1e-012
Ca146 ns146 0 1e-012
Ra145 ns145 0 1371.66069475
Ra146 ns146 0 1371.66069475
Ga145 ns145 0 ns146 0 -0.00263050707209
Ga146 ns146 0 ns145 0 0.00263050707209
Ca147 ns147 0 1e-012
Ca148 ns148 0 1e-012
Ra147 ns147 0 2110.44338255
Ra148 ns148 0 2110.44338255
Ga147 ns147 0 ns148 0 0.00335743763387
Ga148 ns148 0 ns147 0 -0.00335743763387
Ca149 ns149 0 1e-012
Ra149 ns149 0 262410420.914
Ca150 ns150 0 1e-012
Ra150 ns150 0 16360593.1152
Ca151 ns151 0 1e-012
Ra151 ns151 0 7450187.22211
Ca152 ns152 0 1e-012
Ra152 ns152 0 482889.219939
Ca153 ns153 0 1e-012
Ca154 ns154 0 1e-012
Ra153 ns153 0 3178807.98814
Ra154 ns154 0 3178807.98814
Ga153 ns153 0 ns154 0 -8.05370424866e-006
Ga154 ns154 0 ns153 0 8.05370424866e-006
Ca155 ns155 0 1e-012
Ra155 ns155 0 78592.2262071
Ca156 ns156 0 1e-012
Ra156 ns156 0 26063.5943057
Ca157 ns157 0 1e-012
Ca158 ns158 0 1e-012
Ra157 ns157 0 18032.7608079
Ra158 ns158 0 18032.7608079
Ga157 ns157 0 ns158 0 5.67204692722e-006
Ga158 ns158 0 ns157 0 -5.67204692722e-006
Ca159 ns159 0 1e-012
Ra159 ns159 0 2475.71988514
Ca160 ns160 0 1e-012
Ca161 ns161 0 1e-012
Ra160 ns160 0 4595.59837407
Ra161 ns161 0 4595.59837407
Ga160 ns160 0 ns161 0 0.000715150699712
Ga161 ns161 0 ns160 0 -0.000715150699712
Ca162 ns162 0 1e-012
Ca163 ns163 0 1e-012
Ra162 ns162 0 3821.80080974
Ra163 ns163 0 3821.80080974
Ga162 ns162 0 ns163 0 0.000731480112776
Ga163 ns163 0 ns162 0 -0.000731480112776
Ca164 ns164 0 1e-012
Ca165 ns165 0 1e-012
Ra164 ns164 0 38119.6325933
Ra165 ns165 0 38119.6325933
Ga164 ns164 0 ns165 0 0.000800833624449
Ga165 ns165 0 ns164 0 -0.000800833624449
Ca166 ns166 0 1e-012
Ca167 ns167 0 1e-012
Ra166 ns166 0 27657.3095937
Ra167 ns167 0 27657.3095937
Ga166 ns166 0 ns167 0 0.000990021424588
Ga167 ns167 0 ns166 0 -0.000990021424588
Ca168 ns168 0 1e-012
Ca169 ns169 0 1e-012
Ra168 ns168 0 1021.84714331
Ra169 ns169 0 1021.84714331
Ga168 ns168 0 ns169 0 -0.000575085083328
Ga169 ns169 0 ns168 0 0.000575085083328
Ca170 ns170 0 1e-012
Ca171 ns171 0 1e-012
Ra170 ns170 0 4576.16665122
Ra171 ns171 0 4576.16665122
Ga170 ns170 0 ns171 0 0.00137480973644
Ga171 ns171 0 ns170 0 -0.00137480973644
Ca172 ns172 0 1e-012
Ca173 ns173 0 1e-012
Ra172 ns172 0 24419.9145383
Ra173 ns173 0 24419.9145383
Ga172 ns172 0 ns173 0 0.00143622065148
Ga173 ns173 0 ns172 0 -0.00143622065148
Ca174 ns174 0 1e-012
Ca175 ns175 0 1e-012
Ra174 ns174 0 10866.227104
Ra175 ns175 0 10866.227104
Ga174 ns174 0 ns175 0 0.00195075799473
Ga175 ns175 0 ns174 0 -0.00195075799473
Ca176 ns176 0 1e-012
Ca177 ns177 0 1e-012
Ra176 ns176 0 1536.49223219
Ra177 ns177 0 1536.49223219
Ga176 ns176 0 ns177 0 0.00192521311741
Ga177 ns177 0 ns176 0 -0.00192521311741
Ca178 ns178 0 1e-012
Ca179 ns179 0 1e-012
Ra178 ns178 0 2025.51403767
Ra179 ns179 0 2025.51403767
Ga178 ns178 0 ns179 0 0.00215175337384
Ga179 ns179 0 ns178 0 -0.00215175337384
Ca180 ns180 0 1e-012
Ca181 ns181 0 1e-012
Ra180 ns180 0 5295.98860587
Ra181 ns181 0 5295.98860587
Ga180 ns180 0 ns181 0 -0.00260845931481
Ga181 ns181 0 ns180 0 0.00260845931481
Ca182 ns182 0 1e-012
Ca183 ns183 0 1e-012
Ra182 ns182 0 1371.66069475
Ra183 ns183 0 1371.66069475
Ga182 ns182 0 ns183 0 -0.00263050707209
Ga183 ns183 0 ns182 0 0.00263050707209
Ca184 ns184 0 1e-012
Ca185 ns185 0 1e-012
Ra184 ns184 0 2110.44338255
Ra185 ns185 0 2110.44338255
Ga184 ns184 0 ns185 0 0.00335743763387
Ga185 ns185 0 ns184 0 -0.00335743763387
Ca186 ns186 0 1e-012
Ra186 ns186 0 262410420.914
Ca187 ns187 0 1e-012
Ra187 ns187 0 16360593.1152
Ca188 ns188 0 1e-012
Ra188 ns188 0 7450187.22211
Ca189 ns189 0 1e-012
Ra189 ns189 0 482889.219939
Ca190 ns190 0 1e-012
Ca191 ns191 0 1e-012
Ra190 ns190 0 3178807.98814
Ra191 ns191 0 3178807.98814
Ga190 ns190 0 ns191 0 -8.05370424866e-006
Ga191 ns191 0 ns190 0 8.05370424866e-006
Ca192 ns192 0 1e-012
Ra192 ns192 0 78592.2262071
Ca193 ns193 0 1e-012
Ra193 ns193 0 26063.5943057
Ca194 ns194 0 1e-012
Ca195 ns195 0 1e-012
Ra194 ns194 0 18032.7608079
Ra195 ns195 0 18032.7608079
Ga194 ns194 0 ns195 0 5.67204692722e-006
Ga195 ns195 0 ns194 0 -5.67204692722e-006
Ca196 ns196 0 1e-012
Ra196 ns196 0 2475.71988514
Ca197 ns197 0 1e-012
Ca198 ns198 0 1e-012
Ra197 ns197 0 4595.59837407
Ra198 ns198 0 4595.59837407
Ga197 ns197 0 ns198 0 0.000715150699712
Ga198 ns198 0 ns197 0 -0.000715150699712
Ca199 ns199 0 1e-012
Ca200 ns200 0 1e-012
Ra199 ns199 0 3821.80080974
Ra200 ns200 0 3821.80080974
Ga199 ns199 0 ns200 0 0.000731480112776
Ga200 ns200 0 ns199 0 -0.000731480112776
Ca201 ns201 0 1e-012
Ca202 ns202 0 1e-012
Ra201 ns201 0 38119.6325933
Ra202 ns202 0 38119.6325933
Ga201 ns201 0 ns202 0 0.000800833624449
Ga202 ns202 0 ns201 0 -0.000800833624449
Ca203 ns203 0 1e-012
Ca204 ns204 0 1e-012
Ra203 ns203 0 27657.3095937
Ra204 ns204 0 27657.3095937
Ga203 ns203 0 ns204 0 0.000990021424588
Ga204 ns204 0 ns203 0 -0.000990021424588
Ca205 ns205 0 1e-012
Ca206 ns206 0 1e-012
Ra205 ns205 0 1021.84714331
Ra206 ns206 0 1021.84714331
Ga205 ns205 0 ns206 0 -0.000575085083328
Ga206 ns206 0 ns205 0 0.000575085083328
Ca207 ns207 0 1e-012
Ca208 ns208 0 1e-012
Ra207 ns207 0 4576.16665122
Ra208 ns208 0 4576.16665122
Ga207 ns207 0 ns208 0 0.00137480973644
Ga208 ns208 0 ns207 0 -0.00137480973644
Ca209 ns209 0 1e-012
Ca210 ns210 0 1e-012
Ra209 ns209 0 24419.9145383
Ra210 ns210 0 24419.9145383
Ga209 ns209 0 ns210 0 0.00143622065148
Ga210 ns210 0 ns209 0 -0.00143622065148
Ca211 ns211 0 1e-012
Ca212 ns212 0 1e-012
Ra211 ns211 0 10866.227104
Ra212 ns212 0 10866.227104
Ga211 ns211 0 ns212 0 0.00195075799473
Ga212 ns212 0 ns211 0 -0.00195075799473
Ca213 ns213 0 1e-012
Ca214 ns214 0 1e-012
Ra213 ns213 0 1536.49223219
Ra214 ns214 0 1536.49223219
Ga213 ns213 0 ns214 0 0.00192521311741
Ga214 ns214 0 ns213 0 -0.00192521311741
Ca215 ns215 0 1e-012
Ca216 ns216 0 1e-012
Ra215 ns215 0 2025.51403767
Ra216 ns216 0 2025.51403767
Ga215 ns215 0 ns216 0 0.00215175337384
Ga216 ns216 0 ns215 0 -0.00215175337384
Ca217 ns217 0 1e-012
Ca218 ns218 0 1e-012
Ra217 ns217 0 5295.98860587
Ra218 ns218 0 5295.98860587
Ga217 ns217 0 ns218 0 -0.00260845931481
Ga218 ns218 0 ns217 0 0.00260845931481
Ca219 ns219 0 1e-012
Ca220 ns220 0 1e-012
Ra219 ns219 0 1371.66069475
Ra220 ns220 0 1371.66069475
Ga219 ns219 0 ns220 0 -0.00263050707209
Ga220 ns220 0 ns219 0 0.00263050707209
Ca221 ns221 0 1e-012
Ca222 ns222 0 1e-012
Ra221 ns221 0 2110.44338255
Ra222 ns222 0 2110.44338255
Ga221 ns221 0 ns222 0 0.00335743763387
Ga222 ns222 0 ns221 0 -0.00335743763387

Gb1_1 ns1 0 ni1 0 3.81082426726e-009
Gb2_1 ns2 0 ni1 0 6.11224784432e-008
Gb3_1 ns3 0 ni1 0 1.34224814785e-007
Gb4_1 ns4 0 ni1 0 2.07086834559e-006
Gb5_1 ns5 0 ni1 0 8.06599209385e-006
Gb7_1 ns7 0 ni1 0 1.27239047456e-005
Gb8_1 ns8 0 ni1 0 3.83676935832e-005
Gb9_1 ns9 0 ni1 0 5.60347777266e-005
Gb11_1 ns11 0 ni1 0 0.000403922917936
Gb12_1 ns12 0 ni1 0 0.000781359893234
Gb14_1 ns14 0 ni1 0 0.000825076994629
Gb16_1 ns16 0 ni1 0 0.000801692955072
Gb18_1 ns18 0 ni1 0 0.000991341915889
Gb20_1 ns20 0 ni1 0 0.00131656815235
Gb22_1 ns22 0 ni1 0 0.00140954365144
Gb24_1 ns24 0 ni1 0 0.00143738824198
Gb26_1 ns26 0 ni1 0 0.00195509948718
Gb28_1 ns28 0 ni1 0 0.00214523225089
Gb30_1 ns30 0 ni1 0 0.00226502913593
Gb32_1 ns32 0 ni1 0 0.00262212784602
Gb34_1 ns34 0 ni1 0 0.00283256092591
Gb36_1 ns36 0 ni1 0 0.00342430968348
Gb38_2 ns38 0 ni2 0 3.81082426726e-009
Gb39_2 ns39 0 ni2 0 6.11224784432e-008
Gb40_2 ns40 0 ni2 0 1.34224814785e-007
Gb41_2 ns41 0 ni2 0 2.07086834559e-006
Gb42_2 ns42 0 ni2 0 8.06599209385e-006
Gb44_2 ns44 0 ni2 0 1.27239047456e-005
Gb45_2 ns45 0 ni2 0 3.83676935832e-005
Gb46_2 ns46 0 ni2 0 5.60347777266e-005
Gb48_2 ns48 0 ni2 0 0.000403922917936
Gb49_2 ns49 0 ni2 0 0.000781359893234
Gb51_2 ns51 0 ni2 0 0.000825076994629
Gb53_2 ns53 0 ni2 0 0.000801692955072
Gb55_2 ns55 0 ni2 0 0.000991341915889
Gb57_2 ns57 0 ni2 0 0.00131656815235
Gb59_2 ns59 0 ni2 0 0.00140954365144
Gb61_2 ns61 0 ni2 0 0.00143738824198
Gb63_2 ns63 0 ni2 0 0.00195509948718
Gb65_2 ns65 0 ni2 0 0.00214523225089
Gb67_2 ns67 0 ni2 0 0.00226502913593
Gb69_2 ns69 0 ni2 0 0.00262212784602
Gb71_2 ns71 0 ni2 0 0.00283256092591
Gb73_2 ns73 0 ni2 0 0.00342430968348
Gb75_3 ns75 0 ni3 0 3.81082426726e-009
Gb76_3 ns76 0 ni3 0 6.11224784432e-008
Gb77_3 ns77 0 ni3 0 1.34224814785e-007
Gb78_3 ns78 0 ni3 0 2.07086834559e-006
Gb79_3 ns79 0 ni3 0 8.06599209385e-006
Gb81_3 ns81 0 ni3 0 1.27239047456e-005
Gb82_3 ns82 0 ni3 0 3.83676935832e-005
Gb83_3 ns83 0 ni3 0 5.60347777266e-005
Gb85_3 ns85 0 ni3 0 0.000403922917936
Gb86_3 ns86 0 ni3 0 0.000781359893234
Gb88_3 ns88 0 ni3 0 0.000825076994629
Gb90_3 ns90 0 ni3 0 0.000801692955072
Gb92_3 ns92 0 ni3 0 0.000991341915889
Gb94_3 ns94 0 ni3 0 0.00131656815235
Gb96_3 ns96 0 ni3 0 0.00140954365144
Gb98_3 ns98 0 ni3 0 0.00143738824198
Gb100_3 ns100 0 ni3 0 0.00195509948718
Gb102_3 ns102 0 ni3 0 0.00214523225089
Gb104_3 ns104 0 ni3 0 0.00226502913593
Gb106_3 ns106 0 ni3 0 0.00262212784602
Gb108_3 ns108 0 ni3 0 0.00283256092591
Gb110_3 ns110 0 ni3 0 0.00342430968348
Gb112_4 ns112 0 ni4 0 3.81082426726e-009
Gb113_4 ns113 0 ni4 0 6.11224784432e-008
Gb114_4 ns114 0 ni4 0 1.34224814785e-007
Gb115_4 ns115 0 ni4 0 2.07086834559e-006
Gb116_4 ns116 0 ni4 0 8.06599209385e-006
Gb118_4 ns118 0 ni4 0 1.27239047456e-005
Gb119_4 ns119 0 ni4 0 3.83676935832e-005
Gb120_4 ns120 0 ni4 0 5.60347777266e-005
Gb122_4 ns122 0 ni4 0 0.000403922917936
Gb123_4 ns123 0 ni4 0 0.000781359893234
Gb125_4 ns125 0 ni4 0 0.000825076994629
Gb127_4 ns127 0 ni4 0 0.000801692955072
Gb129_4 ns129 0 ni4 0 0.000991341915889
Gb131_4 ns131 0 ni4 0 0.00131656815235
Gb133_4 ns133 0 ni4 0 0.00140954365144
Gb135_4 ns135 0 ni4 0 0.00143738824198
Gb137_4 ns137 0 ni4 0 0.00195509948718
Gb139_4 ns139 0 ni4 0 0.00214523225089
Gb141_4 ns141 0 ni4 0 0.00226502913593
Gb143_4 ns143 0 ni4 0 0.00262212784602
Gb145_4 ns145 0 ni4 0 0.00283256092591
Gb147_4 ns147 0 ni4 0 0.00342430968348
Gb149_5 ns149 0 ni5 0 3.81082426726e-009
Gb150_5 ns150 0 ni5 0 6.11224784432e-008
Gb151_5 ns151 0 ni5 0 1.34224814785e-007
Gb152_5 ns152 0 ni5 0 2.07086834559e-006
Gb153_5 ns153 0 ni5 0 8.06599209385e-006
Gb155_5 ns155 0 ni5 0 1.27239047456e-005
Gb156_5 ns156 0 ni5 0 3.83676935832e-005
Gb157_5 ns157 0 ni5 0 5.60347777266e-005
Gb159_5 ns159 0 ni5 0 0.000403922917936
Gb160_5 ns160 0 ni5 0 0.000781359893234
Gb162_5 ns162 0 ni5 0 0.000825076994629
Gb164_5 ns164 0 ni5 0 0.000801692955072
Gb166_5 ns166 0 ni5 0 0.000991341915889
Gb168_5 ns168 0 ni5 0 0.00131656815235
Gb170_5 ns170 0 ni5 0 0.00140954365144
Gb172_5 ns172 0 ni5 0 0.00143738824198
Gb174_5 ns174 0 ni5 0 0.00195509948718
Gb176_5 ns176 0 ni5 0 0.00214523225089
Gb178_5 ns178 0 ni5 0 0.00226502913593
Gb180_5 ns180 0 ni5 0 0.00262212784602
Gb182_5 ns182 0 ni5 0 0.00283256092591
Gb184_5 ns184 0 ni5 0 0.00342430968348
Gb186_6 ns186 0 ni6 0 3.81082426726e-009
Gb187_6 ns187 0 ni6 0 6.11224784432e-008
Gb188_6 ns188 0 ni6 0 1.34224814785e-007
Gb189_6 ns189 0 ni6 0 2.07086834559e-006
Gb190_6 ns190 0 ni6 0 8.06599209385e-006
Gb192_6 ns192 0 ni6 0 1.27239047456e-005
Gb193_6 ns193 0 ni6 0 3.83676935832e-005
Gb194_6 ns194 0 ni6 0 5.60347777266e-005
Gb196_6 ns196 0 ni6 0 0.000403922917936
Gb197_6 ns197 0 ni6 0 0.000781359893234
Gb199_6 ns199 0 ni6 0 0.000825076994629
Gb201_6 ns201 0 ni6 0 0.000801692955072
Gb203_6 ns203 0 ni6 0 0.000991341915889
Gb205_6 ns205 0 ni6 0 0.00131656815235
Gb207_6 ns207 0 ni6 0 0.00140954365144
Gb209_6 ns209 0 ni6 0 0.00143738824198
Gb211_6 ns211 0 ni6 0 0.00195509948718
Gb213_6 ns213 0 ni6 0 0.00214523225089
Gb215_6 ns215 0 ni6 0 0.00226502913593
Gb217_6 ns217 0 ni6 0 0.00262212784602
Gb219_6 ns219 0 ni6 0 0.00283256092591
Gb221_6 ns221 0 ni6 0 0.00342430968348

Gc1_1 0 n2 ns1 0 -0.00268792802339
Gc1_2 0 n2 ns2 0 0.00671366569136
Gc1_3 0 n2 ns3 0 0.00032391817683
Gc1_4 0 n2 ns4 0 -6.56353922054e-005
Gc1_5 0 n2 ns5 0 -1.1118850257e-007
Gc1_6 0 n2 ns6 0 9.76400208191e-008
Gc1_7 0 n2 ns7 0 -7.98144541697e-005
Gc1_8 0 n2 ns8 0 0.00301899578807
Gc1_9 0 n2 ns9 0 0.00924630689709
Gc1_10 0 n2 ns10 0 0.0148235837462
Gc1_11 0 n2 ns11 0 -0.00268813007828
Gc1_12 0 n2 ns12 0 0.00114256205737
Gc1_13 0 n2 ns13 0 0.000999021353099
Gc1_14 0 n2 ns14 0 0.00405001826403
Gc1_15 0 n2 ns15 0 0.00164398567597
Gc1_16 0 n2 ns16 0 -9.34259066281e-007
Gc1_17 0 n2 ns17 0 -1.72614091976e-006
Gc1_18 0 n2 ns18 0 2.92573043656e-008
Gc1_19 0 n2 ns19 0 3.86775973054e-006
Gc1_20 0 n2 ns20 0 -0.0304145364827
Gc1_21 0 n2 ns21 0 0.0110979600399
Gc1_22 0 n2 ns22 0 7.86107796528e-006
Gc1_23 0 n2 ns23 0 0.000242551373302
Gc1_24 0 n2 ns24 0 -3.34457130796e-006
Gc1_25 0 n2 ns25 0 -9.65238957685e-007
Gc1_26 0 n2 ns26 0 -7.91036616312e-006
Gc1_27 0 n2 ns27 0 -1.34127097283e-006
Gc1_28 0 n2 ns28 0 0.00476226479876
Gc1_29 0 n2 ns29 0 0.00524725708637
Gc1_30 0 n2 ns30 0 -0.00228803174176
Gc1_31 0 n2 ns31 0 0.00110759276833
Gc1_32 0 n2 ns32 0 2.16159474558e-005
Gc1_33 0 n2 ns33 0 4.65092954895e-005
Gc1_34 0 n2 ns34 0 0.00653382407595
Gc1_35 0 n2 ns35 0 -0.00373479153037
Gc1_36 0 n2 ns36 0 -0.00060158633485
Gc1_37 0 n2 ns37 0 0.00125947060143
Gc1_38 0 n2 ns38 0 -0.00300520733361
Gc1_39 0 n2 ns39 0 0.0066359732532
Gc1_40 0 n2 ns40 0 0.000362183824274
Gc1_41 0 n2 ns41 0 -7.07319188315e-005
Gc1_42 0 n2 ns42 0 -7.03700310341e-008
Gc1_43 0 n2 ns43 0 -5.01616014745e-007
Gc1_44 0 n2 ns44 0 -0.000156699581679
Gc1_45 0 n2 ns45 0 -0.001682747332
Gc1_46 0 n2 ns46 0 -0.00442279404381
Gc1_47 0 n2 ns47 0 -0.00780597772885
Gc1_48 0 n2 ns48 0 0.000153971046865
Gc1_49 0 n2 ns49 0 -0.000346529633733
Gc1_50 0 n2 ns50 0 -0.00114553752917
Gc1_51 0 n2 ns51 0 -0.00255296082326
Gc1_52 0 n2 ns52 0 0.000220730475541
Gc1_53 0 n2 ns53 0 -2.18487511926e-006
Gc1_54 0 n2 ns54 0 1.53704525761e-007
Gc1_55 0 n2 ns55 0 9.25503635633e-007
Gc1_56 0 n2 ns56 0 6.01749839765e-007
Gc1_57 0 n2 ns57 0 0.000894840172896
Gc1_58 0 n2 ns58 0 -7.17821174688e-005
Gc1_59 0 n2 ns59 0 -8.79995806712e-005
Gc1_60 0 n2 ns60 0 0.000349186163994
Gc1_61 0 n2 ns61 0 5.2399387606e-007
Gc1_62 0 n2 ns62 0 -1.05465961387e-006
Gc1_63 0 n2 ns63 0 -1.68912830935e-007
Gc1_64 0 n2 ns64 0 1.88966552652e-006
Gc1_65 0 n2 ns65 0 -0.00101339774713
Gc1_66 0 n2 ns66 0 0.00176240460199
Gc1_67 0 n2 ns67 0 0.000805383827027
Gc1_68 0 n2 ns68 0 -0.00116685044405
Gc1_69 0 n2 ns69 0 -9.19048099285e-006
Gc1_70 0 n2 ns70 0 -4.35210445062e-006
Gc1_71 0 n2 ns71 0 -0.000399234283178
Gc1_72 0 n2 ns72 0 0.000602569776437
Gc1_73 0 n2 ns73 0 0.000429482257978
Gc1_74 0 n2 ns74 0 0.00114627454589
Gc1_75 0 n2 ns75 0 -0.00297563091288
Gc1_76 0 n2 ns76 0 0.00661318808099
Gc1_77 0 n2 ns77 0 0.000371613447976
Gc1_78 0 n2 ns78 0 -7.00616128473e-005
Gc1_79 0 n2 ns79 0 -1.35901328978e-007
Gc1_80 0 n2 ns80 0 -5.24325454604e-007
Gc1_81 0 n2 ns81 0 -0.000167524072503
Gc1_82 0 n2 ns82 0 -0.000613297165699
Gc1_83 0 n2 ns83 0 -0.00560834132187
Gc1_84 0 n2 ns84 0 -0.0069653566938
Gc1_85 0 n2 ns85 0 0.000287258846565
Gc1_86 0 n2 ns86 0 -0.000553693092188
Gc1_87 0 n2 ns87 0 -0.00112038858341
Gc1_88 0 n2 ns88 0 -0.00210594473599
Gc1_89 0 n2 ns89 0 0.000168452972916
Gc1_90 0 n2 ns90 0 -1.39673287315e-006
Gc1_91 0 n2 ns91 0 -7.28523538727e-007
Gc1_92 0 n2 ns92 0 1.16407641976e-007
Gc1_93 0 n2 ns93 0 9.77164472015e-007
Gc1_94 0 n2 ns94 0 0.0023263846639
Gc1_95 0 n2 ns95 0 0.000520960663766
Gc1_96 0 n2 ns96 0 -6.13586566756e-005
Gc1_97 0 n2 ns97 0 0.000241359723582
Gc1_98 0 n2 ns98 0 -4.72534592029e-007
Gc1_99 0 n2 ns99 0 -6.23224221574e-007
Gc1_100 0 n2 ns100 0 -3.41844133705e-006
Gc1_101 0 n2 ns101 0 2.308581875e-006
Gc1_102 0 n2 ns102 0 -0.000730542916641
Gc1_103 0 n2 ns103 0 0.000527528360772
Gc1_104 0 n2 ns104 0 0.000542875742674
Gc1_105 0 n2 ns105 0 -0.000496561740724
Gc1_106 0 n2 ns106 0 -7.26111233952e-006
Gc1_107 0 n2 ns107 0 -5.02446377323e-006
Gc1_108 0 n2 ns108 0 -0.000432760416925
Gc1_109 0 n2 ns109 0 0.00109808985573
Gc1_110 0 n2 ns110 0 0.000203132876631
Gc1_111 0 n2 ns111 0 0.00118594860676
Gc1_112 0 n2 ns112 0 0.00294934771636
Gc1_113 0 n2 ns113 0 -0.00660703424956
Gc1_114 0 n2 ns114 0 -0.00037338417768
Gc1_115 0 n2 ns115 0 7.07762921095e-005
Gc1_116 0 n2 ns116 0 1.76052725183e-007
Gc1_117 0 n2 ns117 0 7.30223496784e-007
Gc1_118 0 n2 ns118 0 0.000169174943827
Gc1_119 0 n2 ns119 0 0.000665732982467
Gc1_120 0 n2 ns120 0 0.00565829805658
Gc1_121 0 n2 ns121 0 0.00677801542963
Gc1_122 0 n2 ns122 0 -8.70739854449e-006
Gc1_123 0 n2 ns123 0 -0.000549369291487
Gc1_124 0 n2 ns124 0 -0.000618258962289
Gc1_125 0 n2 ns125 0 -0.00132606110426
Gc1_126 0 n2 ns126 0 0.000510017286132
Gc1_127 0 n2 ns127 0 -1.22663225527e-006
Gc1_128 0 n2 ns128 0 -2.75505987862e-007
Gc1_129 0 n2 ns129 0 2.12259740702e-007
Gc1_130 0 n2 ns130 0 5.05921742189e-007
Gc1_131 0 n2 ns131 0 0.00183728851338
Gc1_132 0 n2 ns132 0 0.000265874734433
Gc1_133 0 n2 ns133 0 0.000116525477943
Gc1_134 0 n2 ns134 0 -8.69382103369e-005
Gc1_135 0 n2 ns135 0 -2.69067249012e-006
Gc1_136 0 n2 ns136 0 -1.53852746359e-007
Gc1_137 0 n2 ns137 0 -2.89299331247e-006
Gc1_138 0 n2 ns138 0 3.84191519068e-006
Gc1_139 0 n2 ns139 0 0.00022856628352
Gc1_140 0 n2 ns140 0 -7.17731529906e-005
Gc1_141 0 n2 ns141 0 -0.00115574728922
Gc1_142 0 n2 ns142 0 6.58415539011e-005
Gc1_143 0 n2 ns143 0 -2.32859531808e-006
Gc1_144 0 n2 ns144 0 -6.07917188929e-006
Gc1_145 0 n2 ns145 0 0.00152645300362
Gc1_146 0 n2 ns146 0 0.00175988493554
Gc1_147 0 n2 ns147 0 0.000366304696634
Gc1_148 0 n2 ns148 0 0.000478716307208
Gc1_149 0 n2 ns149 0 0.0029609096314
Gc1_150 0 n2 ns150 0 -0.00662927535332
Gc1_151 0 n2 ns151 0 -0.000363573171887
Gc1_152 0 n2 ns152 0 7.11243975991e-005