**************************************************
* Manufacturer:           Wurth Elektronik 
* Kinds:                  Three-Phase Common Mode Power Line Choke 
* Matchcode:              WE-TPB HV 
* Library Type:           LTspice
* Version:                rev22a
* Created/modified by:    Ella      
* Date and Time:          2022-05-26
* Team:                   eiSos EDA Service  
* Contact:                libraries@we-online.com
**************************************************
* Copyright(C) 2022 Würth Elektronik eiSos GmbH & Co. KG
* All Rights Reserved.
**************************************************
* Disclaimer: While Würth Elektronik eiSos has made every reasonable effort to ensure the accuracy
* of the simulation models provided, Würth Elektronik eiSos does not guarantee the exemption of error on
* the simulation models, nor does Würth Elektronik eiSos guarantee that the simulation model is current.
* Würth Elektronik eiSos reserves the right to make any adjustments at any time without notice.
* Würth Elektronik eiSos expressly disclaims all implied warranties regarding this simulation model.
**************************************************
.subckt 744835021220 1 2 3 4 5 6
Vam1 1 n2 dc 0
Rport1 n2 0 50
Vam2 2 n4 dc 0
Rport2 n4 0 50
Vam3 3 n6 dc 0
Rport3 n6 0 50
Vam4 4 n8 dc 0
Rport4 n8 0 50
Vam5 5 n10 dc 0
Rport5 n10 0 50
Vam6 6 n12 dc 0
Rport6 n12 0 50

Fi1 0 ni1 Vam1 50
Gi1 0 ni1 1 0 1
Rt1 ni1 0 1
Fi2 0 ni2 Vam2 50
Gi2 0 ni2 2 0 1
Rt2 ni2 0 1
Fi3 0 ni3 Vam3 50
Gi3 0 ni3 3 0 1
Rt3 ni3 0 1
Fi4 0 ni4 Vam4 50
Gi4 0 ni4 4 0 1
Rt4 ni4 0 1
Fi5 0 ni5 Vam5 50
Gi5 0 ni5 5 0 1
Rt5 ni5 0 1
Fi6 0 ni6 Vam6 50
Gi6 0 ni6 6 0 1
Rt6 ni6 0 1

Ca1 ns1 0 1e-012
Ra1 ns1 0 53470373.653
Ca2 ns2 0 1e-012
Ra2 ns2 0 3064028.86216
Ca3 ns3 0 1e-012
Ra3 ns3 0 524560.804073
Ca4 ns4 0 1e-012
Ra4 ns4 0 121434.060612
Ca5 ns5 0 1e-012
Ca6 ns6 0 1e-012
Ra5 ns5 0 93676.1683439
Ra6 ns6 0 93676.1683439
Ga5 ns5 0 ns6 0 -1.32406937189e-006
Ga6 ns6 0 ns5 0 1.32406937189e-006
Ca7 ns7 0 1e-012
Ca8 ns8 0 1e-012
Ra7 ns7 0 2568604.28548
Ra8 ns8 0 2568604.28548
Ga7 ns7 0 ns8 0 -1.93606942641e-005
Ga8 ns8 0 ns7 0 1.93606942641e-005
Ca9 ns9 0 1e-012
Ca10 ns10 0 1e-012
Ra9 ns9 0 59402.4965533
Ra10 ns10 0 59402.4965533
Ga9 ns9 0 ns10 0 -2.44034588029e-005
Ga10 ns10 0 ns9 0 2.44034588029e-005
Ca11 ns11 0 1e-012
Ra11 ns11 0 15532.7073519
Ca12 ns12 0 1e-012
Ca13 ns13 0 1e-012
Ra12 ns12 0 280068.055244
Ra13 ns13 0 280068.055244
Ga12 ns12 0 ns13 0 -0.000214391214058
Ga13 ns13 0 ns12 0 0.000214391214058
Ca14 ns14 0 1e-012
Ca15 ns15 0 1e-012
Ra14 ns14 0 16510.382539
Ra15 ns15 0 16510.382539
Ga14 ns14 0 ns15 0 -0.000273347495029
Ga15 ns15 0 ns14 0 0.000273347495029
Ca16 ns16 0 1e-012
Ca17 ns17 0 1e-012
Ra16 ns16 0 15646.4252602
Ra17 ns17 0 15646.4252602
Ga16 ns16 0 ns17 0 -0.000282732902545
Ga17 ns17 0 ns16 0 0.000282732902545
Ca18 ns18 0 1e-012
Ca19 ns19 0 1e-012
Ra18 ns18 0 14240.9568277
Ra19 ns19 0 14240.9568277
Ga18 ns18 0 ns19 0 -0.000346840691063
Ga19 ns19 0 ns18 0 0.000346840691063
Ca20 ns20 0 1e-012
Ca21 ns21 0 1e-012
Ra20 ns20 0 49616.7443209
Ra21 ns21 0 49616.7443209
Ga20 ns20 0 ns21 0 -0.000361423329675
Ga21 ns21 0 ns20 0 0.000361423329675
Ca22 ns22 0 1e-012
Ca23 ns23 0 1e-012
Ra22 ns22 0 84397.2184576
Ra23 ns23 0 84397.2184576
Ga22 ns22 0 ns23 0 -0.000441479446341
Ga23 ns23 0 ns22 0 0.000441479446341
Ca24 ns24 0 1e-012
Ca25 ns25 0 1e-012
Ra24 ns24 0 11905.9943737
Ra25 ns25 0 11905.9943737
Ga24 ns24 0 ns25 0 -0.000599425845674
Ga25 ns25 0 ns24 0 0.000599425845674
Ca26 ns26 0 1e-012
Ca27 ns27 0 1e-012
Ra26 ns26 0 6516.40141978
Ra27 ns27 0 6516.40141978
Ga26 ns26 0 ns27 0 -0.000882524520416
Ga27 ns27 0 ns26 0 0.000882524520416
Ca28 ns28 0 1e-012
Ca29 ns29 0 1e-012
Ra28 ns28 0 1199.27832416
Ra29 ns29 0 1199.27832416
Ga28 ns28 0 ns29 0 -0.000574235418143
Ga29 ns29 0 ns28 0 0.000574235418143
Ca30 ns30 0 1e-012
Ra30 ns30 0 53470373.653
Ca31 ns31 0 1e-012
Ra31 ns31 0 3064028.86216
Ca32 ns32 0 1e-012
Ra32 ns32 0 524560.804073
Ca33 ns33 0 1e-012
Ra33 ns33 0 121434.060612
Ca34 ns34 0 1e-012
Ca35 ns35 0 1e-012
Ra34 ns34 0 93676.1683439
Ra35 ns35 0 93676.1683439
Ga34 ns34 0 ns35 0 -1.32406937189e-006
Ga35 ns35 0 ns34 0 1.32406937189e-006
Ca36 ns36 0 1e-012
Ca37 ns37 0 1e-012
Ra36 ns36 0 2568604.28548
Ra37 ns37 0 2568604.28548
Ga36 ns36 0 ns37 0 -1.93606942641e-005
Ga37 ns37 0 ns36 0 1.93606942641e-005
Ca38 ns38 0 1e-012
Ca39 ns39 0 1e-012
Ra38 ns38 0 59402.4965533
Ra39 ns39 0 59402.4965533
Ga38 ns38 0 ns39 0 -2.44034588029e-005
Ga39 ns39 0 ns38 0 2.44034588029e-005
Ca40 ns40 0 1e-012
Ra40 ns40 0 15532.7073519
Ca41 ns41 0 1e-012
Ca42 ns42 0 1e-012
Ra41 ns41 0 280068.055244
Ra42 ns42 0 280068.055244
Ga41 ns41 0 ns42 0 -0.000214391214058
Ga42 ns42 0 ns41 0 0.000214391214058
Ca43 ns43 0 1e-012
Ca44 ns44 0 1e-012
Ra43 ns43 0 16510.382539
Ra44 ns44 0 16510.382539
Ga43 ns43 0 ns44 0 -0.000273347495029
Ga44 ns44 0 ns43 0 0.000273347495029
Ca45 ns45 0 1e-012
Ca46 ns46 0 1e-012
Ra45 ns45 0 15646.4252602
Ra46 ns46 0 15646.4252602
Ga45 ns45 0 ns46 0 -0.000282732902545
Ga46 ns46 0 ns45 0 0.000282732902545
Ca47 ns47 0 1e-012
Ca48 ns48 0 1e-012
Ra47 ns47 0 14240.9568277
Ra48 ns48 0 14240.9568277
Ga47 ns47 0 ns48 0 -0.000346840691063
Ga48 ns48 0 ns47 0 0.000346840691063
Ca49 ns49 0 1e-012
Ca50 ns50 0 1e-012
Ra49 ns49 0 49616.7443209
Ra50 ns50 0 49616.7443209
Ga49 ns49 0 ns50 0 -0.000361423329675
Ga50 ns50 0 ns49 0 0.000361423329675
Ca51 ns51 0 1e-012
Ca52 ns52 0 1e-012
Ra51 ns51 0 84397.2184576
Ra52 ns52 0 84397.2184576
Ga51 ns51 0 ns52 0 -0.000441479446341
Ga52 ns52 0 ns51 0 0.000441479446341
Ca53 ns53 0 1e-012
Ca54 ns54 0 1e-012
Ra53 ns53 0 11905.9943737
Ra54 ns54 0 11905.9943737
Ga53 ns53 0 ns54 0 -0.000599425845674
Ga54 ns54 0 ns53 0 0.000599425845674
Ca55 ns55 0 1e-012
Ca56 ns56 0 1e-012
Ra55 ns55 0 6516.40141978
Ra56 ns56 0 6516.40141978
Ga55 ns55 0 ns56 0 -0.000882524520416
Ga56 ns56 0 ns55 0 0.000882524520416
Ca57 ns57 0 1e-012
Ca58 ns58 0 1e-012
Ra57 ns57 0 1199.27832416
Ra58 ns58 0 1199.27832416
Ga57 ns57 0 ns58 0 -0.000574235418143
Ga58 ns58 0 ns57 0 0.000574235418143
Ca59 ns59 0 1e-012
Ra59 ns59 0 53470373.653
Ca60 ns60 0 1e-012
Ra60 ns60 0 3064028.86216
Ca61 ns61 0 1e-012
Ra61 ns61 0 524560.804073
Ca62 ns62 0 1e-012
Ra62 ns62 0 121434.060612
Ca63 ns63 0 1e-012
Ca64 ns64 0 1e-012
Ra63 ns63 0 93676.1683439
Ra64 ns64 0 93676.1683439
Ga63 ns63 0 ns64 0 -1.32406937189e-006
Ga64 ns64 0 ns63 0 1.32406937189e-006
Ca65 ns65 0 1e-012
Ca66 ns66 0 1e-012
Ra65 ns65 0 2568604.28548
Ra66 ns66 0 2568604.28548
Ga65 ns65 0 ns66 0 -1.93606942641e-005
Ga66 ns66 0 ns65 0 1.93606942641e-005
Ca67 ns67 0 1e-012
Ca68 ns68 0 1e-012
Ra67 ns67 0 59402.4965533
Ra68 ns68 0 59402.4965533
Ga67 ns67 0 ns68 0 -2.44034588029e-005
Ga68 ns68 0 ns67 0 2.44034588029e-005
Ca69 ns69 0 1e-012
Ra69 ns69 0 15532.7073519
Ca70 ns70 0 1e-012
Ca71 ns71 0 1e-012
Ra70 ns70 0 280068.055244
Ra71 ns71 0 280068.055244
Ga70 ns70 0 ns71 0 -0.000214391214058
Ga71 ns71 0 ns70 0 0.000214391214058
Ca72 ns72 0 1e-012
Ca73 ns73 0 1e-012
Ra72 ns72 0 16510.382539
Ra73 ns73 0 16510.382539
Ga72 ns72 0 ns73 0 -0.000273347495029
Ga73 ns73 0 ns72 0 0.000273347495029
Ca74 ns74 0 1e-012
Ca75 ns75 0 1e-012
Ra74 ns74 0 15646.4252602
Ra75 ns75 0 15646.4252602
Ga74 ns74 0 ns75 0 -0.000282732902545
Ga75 ns75 0 ns74 0 0.000282732902545
Ca76 ns76 0 1e-012
Ca77 ns77 0 1e-012
Ra76 ns76 0 14240.9568277
Ra77 ns77 0 14240.9568277
Ga76 ns76 0 ns77 0 -0.000346840691063
Ga77 ns77 0 ns76 0 0.000346840691063
Ca78 ns78 0 1e-012
Ca79 ns79 0 1e-012
Ra78 ns78 0 49616.7443209
Ra79 ns79 0 49616.7443209
Ga78 ns78 0 ns79 0 -0.000361423329675
Ga79 ns79 0 ns78 0 0.000361423329675
Ca80 ns80 0 1e-012
Ca81 ns81 0 1e-012
Ra80 ns80 0 84397.2184576
Ra81 ns81 0 84397.2184576
Ga80 ns80 0 ns81 0 -0.000441479446341
Ga81 ns81 0 ns80 0 0.000441479446341
Ca82 ns82 0 1e-012
Ca83 ns83 0 1e-012
Ra82 ns82 0 11905.9943737
Ra83 ns83 0 11905.9943737
Ga82 ns82 0 ns83 0 -0.000599425845674
Ga83 ns83 0 ns82 0 0.000599425845674
Ca84 ns84 0 1e-012
Ca85 ns85 0 1e-012
Ra84 ns84 0 6516.40141978
Ra85 ns85 0 6516.40141978
Ga84 ns84 0 ns85 0 -0.000882524520416
Ga85 ns85 0 ns84 0 0.000882524520416
Ca86 ns86 0 1e-012
Ca87 ns87 0 1e-012
Ra86 ns86 0 1199.27832416
Ra87 ns87 0 1199.27832416
Ga86 ns86 0 ns87 0 -0.000574235418143
Ga87 ns87 0 ns86 0 0.000574235418143
Ca88 ns88 0 1e-012
Ra88 ns88 0 53470373.653
Ca89 ns89 0 1e-012
Ra89 ns89 0 3064028.86216
Ca90 ns90 0 1e-012
Ra90 ns90 0 524560.804073
Ca91 ns91 0 1e-012
Ra91 ns91 0 121434.060612
Ca92 ns92 0 1e-012
Ca93 ns93 0 1e-012
Ra92 ns92 0 93676.1683439
Ra93 ns93 0 93676.1683439
Ga92 ns92 0 ns93 0 -1.32406937189e-006
Ga93 ns93 0 ns92 0 1.32406937189e-006
Ca94 ns94 0 1e-012
Ca95 ns95 0 1e-012
Ra94 ns94 0 2568604.28548
Ra95 ns95 0 2568604.28548
Ga94 ns94 0 ns95 0 -1.93606942641e-005
Ga95 ns95 0 ns94 0 1.93606942641e-005
Ca96 ns96 0 1e-012
Ca97 ns97 0 1e-012
Ra96 ns96 0 59402.4965533
Ra97 ns97 0 59402.4965533
Ga96 ns96 0 ns97 0 -2.44034588029e-005
Ga97 ns97 0 ns96 0 2.44034588029e-005
Ca98 ns98 0 1e-012
Ra98 ns98 0 15532.7073519
Ca99 ns99 0 1e-012
Ca100 ns100 0 1e-012
Ra99 ns99 0 280068.055244
Ra100 ns100 0 280068.055244
Ga99 ns99 0 ns100 0 -0.000214391214058
Ga100 ns100 0 ns99 0 0.000214391214058
Ca101 ns101 0 1e-012
Ca102 ns102 0 1e-012
Ra101 ns101 0 16510.382539
Ra102 ns102 0 16510.382539
Ga101 ns101 0 ns102 0 -0.000273347495029
Ga102 ns102 0 ns101 0 0.000273347495029
Ca103 ns103 0 1e-012
Ca104 ns104 0 1e-012
Ra103 ns103 0 15646.4252602
Ra104 ns104 0 15646.4252602
Ga103 ns103 0 ns104 0 -0.000282732902545
Ga104 ns104 0 ns103 0 0.000282732902545
Ca105 ns105 0 1e-012
Ca106 ns106 0 1e-012
Ra105 ns105 0 14240.9568277
Ra106 ns106 0 14240.9568277
Ga105 ns105 0 ns106 0 -0.000346840691063
Ga106 ns106 0 ns105 0 0.000346840691063
Ca107 ns107 0 1e-012
Ca108 ns108 0 1e-012
Ra107 ns107 0 49616.7443209
Ra108 ns108 0 49616.7443209
Ga107 ns107 0 ns108 0 -0.000361423329675
Ga108 ns108 0 ns107 0 0.000361423329675
Ca109 ns109 0 1e-012
Ca110 ns110 0 1e-012
Ra109 ns109 0 84397.2184576
Ra110 ns110 0 84397.2184576
Ga109 ns109 0 ns110 0 -0.000441479446341
Ga110 ns110 0 ns109 0 0.000441479446341
Ca111 ns111 0 1e-012
Ca112 ns112 0 1e-012
Ra111 ns111 0 11905.9943737
Ra112 ns112 0 11905.9943737
Ga111 ns111 0 ns112 0 -0.000599425845674
Ga112 ns112 0 ns111 0 0.000599425845674
Ca113 ns113 0 1e-012
Ca114 ns114 0 1e-012
Ra113 ns113 0 6516.40141978
Ra114 ns114 0 6516.40141978
Ga113 ns113 0 ns114 0 -0.000882524520416
Ga114 ns114 0 ns113 0 0.000882524520416
Ca115 ns115 0 1e-012
Ca116 ns116 0 1e-012
Ra115 ns115 0 1199.27832416
Ra116 ns116 0 1199.27832416
Ga115 ns115 0 ns116 0 -0.000574235418143
Ga116 ns116 0 ns115 0 0.000574235418143
Ca117 ns117 0 1e-012
Ra117 ns117 0 53470373.653
Ca118 ns118 0 1e-012
Ra118 ns118 0 3064028.86216
Ca119 ns119 0 1e-012
Ra119 ns119 0 524560.804073
Ca120 ns120 0 1e-012
Ra120 ns120 0 121434.060612
Ca121 ns121 0 1e-012
Ca122 ns122 0 1e-012
Ra121 ns121 0 93676.1683439
Ra122 ns122 0 93676.1683439
Ga121 ns121 0 ns122 0 -1.32406937189e-006
Ga122 ns122 0 ns121 0 1.32406937189e-006
Ca123 ns123 0 1e-012
Ca124 ns124 0 1e-012
Ra123 ns123 0 2568604.28548
Ra124 ns124 0 2568604.28548
Ga123 ns123 0 ns124 0 -1.93606942641e-005
Ga124 ns124 0 ns123 0 1.93606942641e-005
Ca125 ns125 0 1e-012
Ca126 ns126 0 1e-012
Ra125 ns125 0 59402.4965533
Ra126 ns126 0 59402.4965533
Ga125 ns125 0 ns126 0 -2.44034588029e-005
Ga126 ns126 0 ns125 0 2.44034588029e-005
Ca127 ns127 0 1e-012
Ra127 ns127 0 15532.7073519
Ca128 ns128 0 1e-012
Ca129 ns129 0 1e-012
Ra128 ns128 0 280068.055244
Ra129 ns129 0 280068.055244
Ga128 ns128 0 ns129 0 -0.000214391214058
Ga129 ns129 0 ns128 0 0.000214391214058
Ca130 ns130 0 1e-012
Ca131 ns131 0 1e-012
Ra130 ns130 0 16510.382539
Ra131 ns131 0 16510.382539
Ga130 ns130 0 ns131 0 -0.000273347495029
Ga131 ns131 0 ns130 0 0.000273347495029
Ca132 ns132 0 1e-012
Ca133 ns133 0 1e-012
Ra132 ns132 0 15646.4252602
Ra133 ns133 0 15646.4252602
Ga132 ns132 0 ns133 0 -0.000282732902545
Ga133 ns133 0 ns132 0 0.000282732902545
Ca134 ns134 0 1e-012
Ca135 ns135 0 1e-012
Ra134 ns134 0 14240.9568277
Ra135 ns135 0 14240.9568277
Ga134 ns134 0 ns135 0 -0.000346840691063
Ga135 ns135 0 ns134 0 0.000346840691063
Ca136 ns136 0 1e-012
Ca137 ns137 0 1e-012
Ra136 ns136 0 49616.7443209
Ra137 ns137 0 49616.7443209
Ga136 ns136 0 ns137 0 -0.000361423329675
Ga137 ns137 0 ns136 0 0.000361423329675
Ca138 ns138 0 1e-012
Ca139 ns139 0 1e-012
Ra138 ns138 0 84397.2184576
Ra139 ns139 0 84397.2184576
Ga138 ns138 0 ns139 0 -0.000441479446341
Ga139 ns139 0 ns138 0 0.000441479446341
Ca140 ns140 0 1e-012
Ca141 ns141 0 1e-012
Ra140 ns140 0 11905.9943737
Ra141 ns141 0 11905.9943737
Ga140 ns140 0 ns141 0 -0.000599425845674
Ga141 ns141 0 ns140 0 0.000599425845674
Ca142 ns142 0 1e-012
Ca143 ns143 0 1e-012
Ra142 ns142 0 6516.40141978
Ra143 ns143 0 6516.40141978
Ga142 ns142 0 ns143 0 -0.000882524520416
Ga143 ns143 0 ns142 0 0.000882524520416
Ca144 ns144 0 1e-012
Ca145 ns145 0 1e-012
Ra144 ns144 0 1199.27832416
Ra145 ns145 0 1199.27832416
Ga144 ns144 0 ns145 0 -0.000574235418143
Ga145 ns145 0 ns144 0 0.000574235418143
Ca146 ns146 0 1e-012
Ra146 ns146 0 53470373.653
Ca147 ns147 0 1e-012
Ra147 ns147 0 3064028.86216
Ca148 ns148 0 1e-012
Ra148 ns148 0 524560.804073
Ca149 ns149 0 1e-012
Ra149 ns149 0 121434.060612
Ca150 ns150 0 1e-012
Ca151 ns151 0 1e-012
Ra150 ns150 0 93676.1683439
Ra151 ns151 0 93676.1683439
Ga150 ns150 0 ns151 0 -1.32406937189e-006
Ga151 ns151 0 ns150 0 1.32406937189e-006
Ca152 ns152 0 1e-012
Ca153 ns153 0 1e-012
Ra152 ns152 0 2568604.28548
Ra153 ns153 0 2568604.28548
Ga152 ns152 0 ns153 0 -1.93606942641e-005
Ga153 ns153 0 ns152 0 1.93606942641e-005
Ca154 ns154 0 1e-012
Ca155 ns155 0 1e-012
Ra154 ns154 0 59402.4965533
Ra155 ns155 0 59402.4965533
Ga154 ns154 0 ns155 0 -2.44034588029e-005
Ga155 ns155 0 ns154 0 2.44034588029e-005
Ca156 ns156 0 1e-012
Ra156 ns156 0 15532.7073519
Ca157 ns157 0 1e-012
Ca158 ns158 0 1e-012
Ra157 ns157 0 280068.055244
Ra158 ns158 0 280068.055244
Ga157 ns157 0 ns158 0 -0.000214391214058
Ga158 ns158 0 ns157 0 0.000214391214058
Ca159 ns159 0 1e-012
Ca160 ns160 0 1e-012
Ra159 ns159 0 16510.382539
Ra160 ns160 0 16510.382539
Ga159 ns159 0 ns160 0 -0.000273347495029
Ga160 ns160 0 ns159 0 0.000273347495029
Ca161 ns161 0 1e-012
Ca162 ns162 0 1e-012
Ra161 ns161 0 15646.4252602
Ra162 ns162 0 15646.4252602
Ga161 ns161 0 ns162 0 -0.000282732902545
Ga162 ns162 0 ns161 0 0.000282732902545
Ca163 ns163 0 1e-012
Ca164 ns164 0 1e-012
Ra163 ns163 0 14240.9568277
Ra164 ns164 0 14240.9568277
Ga163 ns163 0 ns164 0 -0.000346840691063
Ga164 ns164 0 ns163 0 0.000346840691063
Ca165 ns165 0 1e-012
Ca166 ns166 0 1e-012
Ra165 ns165 0 49616.7443209
Ra166 ns166 0 49616.7443209
Ga165 ns165 0 ns166 0 -0.000361423329675
Ga166 ns166 0 ns165 0 0.000361423329675
Ca167 ns167 0 1e-012
Ca168 ns168 0 1e-012
Ra167 ns167 0 84397.2184576
Ra168 ns168 0 84397.2184576
Ga167 ns167 0 ns168 0 -0.000441479446341
Ga168 ns168 0 ns167 0 0.000441479446341
Ca169 ns169 0 1e-012
Ca170 ns170 0 1e-012
Ra169 ns169 0 11905.9943737
Ra170 ns170 0 11905.9943737
Ga169 ns169 0 ns170 0 -0.000599425845674
Ga170 ns170 0 ns169 0 0.000599425845674
Ca171 ns171 0 1e-012
Ca172 ns172 0 1e-012
Ra171 ns171 0 6516.40141978
Ra172 ns172 0 6516.40141978
Ga171 ns171 0 ns172 0 -0.000882524520416
Ga172 ns172 0 ns171 0 0.000882524520416
Ca173 ns173 0 1e-012
Ca174 ns174 0 1e-012
Ra173 ns173 0 1199.27832416
Ra174 ns174 0 1199.27832416
Ga173 ns173 0 ns174 0 -0.000574235418143
Ga174 ns174 0 ns173 0 0.000574235418143

Gb1_1 ns1 0 ni1 0 1.87019452396e-008
Gb2_1 ns2 0 ni1 0 3.26367682873e-007
Gb3_1 ns3 0 ni1 0 1.90635669352e-006
Gb4_1 ns4 0 ni1 0 8.23492185766e-006
Gb5_1 ns5 0 ni1 0 1.08393029726e-005
Gb7_1 ns7 0 ni1 0 1.93685228743e-005
Gb9_1 ns9 0 ni1 0 3.60163195781e-005
Gb11_1 ns11 0 ni1 0 6.43802768794e-005
Gb12_1 ns12 0 ni1 0 0.000214450679666
Gb14_1 ns14 0 ni1 0 0.000286768054782
Gb16_1 ns16 0 ni1 0 0.000297180425343
Gb18_1 ns18 0 ni1 0 0.000361057155974
Gb20_1 ns20 0 ni1 0 0.000362547228687
Gb22_1 ns22 0 ni1 0 0.000441797450825
Gb24_1 ns24 0 ni1 0 0.00061119467296
Gb26_1 ns26 0 ni1 0 0.000909208927653
Gb28_1 ns28 0 ni1 0 0.00122929240728
Gb30_2 ns30 0 ni2 0 1.87019452396e-008
Gb31_2 ns31 0 ni2 0 3.26367682873e-007
Gb32_2 ns32 0 ni2 0 1.90635669352e-006
Gb33_2 ns33 0 ni2 0 8.23492185766e-006
Gb34_2 ns34 0 ni2 0 1.08393029726e-005
Gb36_2 ns36 0 ni2 0 1.93685228743e-005
Gb38_2 ns38 0 ni2 0 3.60163195781e-005
Gb40_2 ns40 0 ni2 0 6.43802768794e-005
Gb41_2 ns41 0 ni2 0 0.000214450679666
Gb43_2 ns43 0 ni2 0 0.000286768054782
Gb45_2 ns45 0 ni2 0 0.000297180425343
Gb47_2 ns47 0 ni2 0 0.000361057155974
Gb49_2 ns49 0 ni2 0 0.000362547228687
Gb51_2 ns51 0 ni2 0 0.000441797450825
Gb53_2 ns53 0 ni2 0 0.00061119467296
Gb55_2 ns55 0 ni2 0 0.000909208927653
Gb57_2 ns57 0 ni2 0 0.00122929240728
Gb59_3 ns59 0 ni3 0 1.87019452396e-008
Gb60_3 ns60 0 ni3 0 3.26367682873e-007
Gb61_3 ns61 0 ni3 0 1.90635669352e-006
Gb62_3 ns62 0 ni3 0 8.23492185766e-006
Gb63_3 ns63 0 ni3 0 1.08393029726e-005
Gb65_3 ns65 0 ni3 0 1.93685228743e-005
Gb67_3 ns67 0 ni3 0 3.60163195781e-005
Gb69_3 ns69 0 ni3 0 6.43802768794e-005
Gb70_3 ns70 0 ni3 0 0.000214450679666
Gb72_3 ns72 0 ni3 0 0.000286768054782
Gb74_3 ns74 0 ni3 0 0.000297180425343
Gb76_3 ns76 0 ni3 0 0.000361057155974
Gb78_3 ns78 0 ni3 0 0.000362547228687
Gb80_3 ns80 0 ni3 0 0.000441797450825
Gb82_3 ns82 0 ni3 0 0.00061119467296
Gb84_3 ns84 0 ni3 0 0.000909208927653
Gb86_3 ns86 0 ni3 0 0.00122929240728
Gb88_4 ns88 0 ni4 0 1.87019452396e-008
Gb89_4 ns89 0 ni4 0 3.26367682873e-007
Gb90_4 ns90 0 ni4 0 1.90635669352e-006
Gb91_4 ns91 0 ni4 0 8.23492185766e-006
Gb92_4 ns92 0 ni4 0 1.08393029726e-005
Gb94_4 ns94 0 ni4 0 1.93685228743e-005
Gb96_4 ns96 0 ni4 0 3.60163195781e-005
Gb98_4 ns98 0 ni4 0 6.43802768794e-005
Gb99_4 ns99 0 ni4 0 0.000214450679666
Gb101_4 ns101 0 ni4 0 0.000286768054782
Gb103_4 ns103 0 ni4 0 0.000297180425343
Gb105_4 ns105 0 ni4 0 0.000361057155974
Gb107_4 ns107 0 ni4 0 0.000362547228687
Gb109_4 ns109 0 ni4 0 0.000441797450825
Gb111_4 ns111 0 ni4 0 0.00061119467296
Gb113_4 ns113 0 ni4 0 0.000909208927653
Gb115_4 ns115 0 ni4 0 0.00122929240728
Gb117_5 ns117 0 ni5 0 1.87019452396e-008
Gb118_5 ns118 0 ni5 0 3.26367682873e-007
Gb119_5 ns119 0 ni5 0 1.90635669352e-006
Gb120_5 ns120 0 ni5 0 8.23492185766e-006
Gb121_5 ns121 0 ni5 0 1.08393029726e-005
Gb123_5 ns123 0 ni5 0 1.93685228743e-005
Gb125_5 ns125 0 ni5 0 3.60163195781e-005
Gb127_5 ns127 0 ni5 0 6.43802768794e-005
Gb128_5 ns128 0 ni5 0 0.000214450679666
Gb130_5 ns130 0 ni5 0 0.000286768054782
Gb132_5 ns132 0 ni5 0 0.000297180425343
Gb134_5 ns134 0 ni5 0 0.000361057155974
Gb136_5 ns136 0 ni5 0 0.000362547228687
Gb138_5 ns138 0 ni5 0 0.000441797450825
Gb140_5 ns140 0 ni5 0 0.00061119467296
Gb142_5 ns142 0 ni5 0 0.000909208927653
Gb144_5 ns144 0 ni5 0 0.00122929240728
Gb146_6 ns146 0 ni6 0 1.87019452396e-008
Gb147_6 ns147 0 ni6 0 3.26367682873e-007
Gb148_6 ns148 0 ni6 0 1.90635669352e-006
Gb149_6 ns149 0 ni6 0 8.23492185766e-006
Gb150_6 ns150 0 ni6 0 1.08393029726e-005
Gb152_6 ns152 0 ni6 0 1.93685228743e-005
Gb154_6 ns154 0 ni6 0 3.60163195781e-005
Gb156_6 ns156 0 ni6 0 6.43802768794e-005
Gb157_6 ns157 0 ni6 0 0.000214450679666
Gb159_6 ns159 0 ni6 0 0.000286768054782
Gb161_6 ns161 0 ni6 0 0.000297180425343
Gb163_6 ns163 0 ni6 0 0.000361057155974
Gb165_6 ns165 0 ni6 0 0.000362547228687
Gb167_6 ns167 0 ni6 0 0.000441797450825
Gb169_6 ns169 0 ni6 0 0.00061119467296
Gb171_6 ns171 0 ni6 0 0.000909208927653
Gb173_6 ns173 0 ni6 0 0.00122929240728

Gc1_1 0 n2 ns1 0 0.0066092899161
Gc1_2 0 n2 ns2 0 2.2689510828e-005
Gc1_3 0 n2 ns3 0 2.64067923118e-005
Gc1_4 0 n2 ns4 0 0.00315888739439
Gc1_5 0 n2 ns5 0 0.0113728864294
Gc1_6 0 n2 ns6 0 0.00658946302068
Gc1_7 0 n2 ns7 0 4.28279983207e-007
Gc1_8 0 n2 ns8 0 2.35202015471e-007
Gc1_9 0 n2 ns9 0 6.59051939484e-005
Gc1_10 0 n2 ns10 0 3.77803508203e-005
Gc1_11 0 n2 ns11 0 -0.000559712345936
Gc1_12 0 n2 ns12 0 3.63704886744e-007
Gc1_13 0 n2 ns13 0 8.40882277674e-007
Gc1_14 0 n2 ns14 0 0.00193640715455
Gc1_15 0 n2 ns15 0 0.00122443246614
Gc1_16 0 n2 ns16 0 0.00140908991257
Gc1_17 0 n2 ns17 0 -0.0013006971855
Gc1_18 0 n2 ns18 0 0.00171197902755
Gc1_19 0 n2 ns19 0 -0.00128045471814
Gc1_20 0 n2 ns20 0 3.74202528596e-006
Gc1_21 0 n2 ns21 0 4.16389482949e-006
Gc1_22 0 n2 ns22 0 -5.90182663012e-007
Gc1_23 0 n2 ns23 0 -6.13926430348e-007
Gc1_24 0 n2 ns24 0 7.17812448533e-005
Gc1_25 0 n2 ns25 0 9.70000939347e-005
Gc1_26 0 n2 ns26 0 0.00294645987455
Gc1_27 0 n2 ns27 0 0.000781248067944
Gc1_28 0 n2 ns28 0 0.00568045793805
Gc1_29 0 n2 ns29 0 0.03654904912
Gc1_30 0 n2 ns30 0 0.00654782982601
Gc1_31 0 n2 ns31 0 -1.27895791387e-005
Gc1_32 0 n2 ns32 0 -4.4286261626e-005
Gc1_33 0 n2 ns33 0 -0.00267130059662
Gc1_34 0 n2 ns34 0 -0.00499107927456
Gc1_35 0 n2 ns35 0 -0.00603227987973
Gc1_36 0 n2 ns36 0 -1.11614791395e-007
Gc1_37 0 n2 ns37 0 6.94098508449e-008
Gc1_38 0 n2 ns38 0 -1.88296929798e-006
Gc1_39 0 n2 ns39 0 -2.93447593567e-005
Gc1_40 0 n2 ns40 0 3.11048741475e-005
Gc1_41 0 n2 ns41 0 7.25171213348e-008
Gc1_42 0 n2 ns42 0 6.2454800338e-007
Gc1_43 0 n2 ns43 0 -0.000110063298035
Gc1_44 0 n2 ns44 0 -0.000641855155093
Gc1_45 0 n2 ns45 0 -0.00226838508262
Gc1_46 0 n2 ns46 0 0.00105047011471
Gc1_47 0 n2 ns47 0 0.00194888477207
Gc1_48 0 n2 ns48 0 -0.0010313365206
Gc1_49 0 n2 ns49 0 -1.74786179823e-006
Gc1_50 0 n2 ns50 0 -3.56973733221e-006
Gc1_51 0 n2 ns51 0 5.71969827323e-007
Gc1_52 0 n2 ns52 0 9.01684834135e-007
Gc1_53 0 n2 ns53 0 9.66643677198e-006
Gc1_54 0 n2 ns54 0 -8.50288625411e-006
Gc1_55 0 n2 ns55 0 -0.000416777408288
Gc1_56 0 n2 ns56 0 0.000420473470059
Gc1_57 0 n2 ns57 0 -0.0012314346518
Gc1_58 0 n2 ns58 0 -0.00097043823712
Gc1_59 0 n2 ns59 0 0.0065564887268
Gc1_60 0 n2 ns60 0 -1.14817315156e-005
Gc1_61 0 n2 ns61 0 -5.1771186841e-005
Gc1_62 0 n2 ns62 0 -0.00238423714608
Gc1_63 0 n2 ns63 0 -0.00492797862129
Gc1_64 0 n2 ns64 0 -0.00366981301927
Gc1_65 0 n2 ns65 0 -2.1136821331e-008
Gc1_66 0 n2 ns66 0 5.14819379145e-008
Gc1_67 0 n2 ns67 0 6.95579097895e-006
Gc1_68 0 n2 ns68 0 -1.5065331129e-005
Gc1_69 0 n2 ns69 0 -7.81306034879e-006
Gc1_70 0 n2 ns70 0 3.83464237785e-007
Gc1_71 0 n2 ns71 0 3.43171128857e-007
Gc1_72 0 n2 ns72 0 -0.00266057105637
Gc1_73 0 n2 ns73 0 -1.18680574391e-005
Gc1_74 0 n2 ns74 0 0.000702625337976
Gc1_75 0 n2 ns75 0 0.00028502460881
Gc1_76 0 n2 ns76 0 0.00156969462388
Gc1_77 0 n2 ns77 0 -0.000914408757038
Gc1_78 0 n2 ns78 0 -4.2667047571e-007
Gc1_79 0 n2 ns79 0 -1.57222530239e-006
Gc1_80 0 n2 ns80 0 3.71407798113e-007
Gc1_81 0 n2 ns81 0 6.49735690442e-007
Gc1_82 0 n2 ns82 0 9.12150688576e-006
Gc1_83 0 n2 ns83 0 -2.15304886776e-006
Gc1_84 0 n2 ns84 0 -0.000393565887319
Gc1_85 0 n2 ns85 0 0.000569131679629
Gc1_86 0 n2 ns86 0 -0.00122019128862
Gc1_87 0 n2 ns87 0 -0.00111248050206
Gc1_88 0 n2 ns88 0 -0.00661038969336
Gc1_89 0 n2 ns89 0 -3.21250420044e-005
Gc1_90 0 n2 ns90 0 -1.2454810323e-005
Gc1_91 0 n2 ns91 0 -0.00183450954138
Gc1_92 0 n2 ns92 0 -0.0116853766698
Gc1_93 0 n2 ns93 0 -0.00132962719323
Gc1_94 0 n2 ns94 0 2.91188218304e-007
Gc1_95 0 n2 ns95 0 -6.23981632969e-009
Gc1_96 0 n2 ns96 0 3.75507870788e-005
Gc1_97 0 n2 ns97 0 7.74747069934e-005
Gc1_98 0 n2 ns98 0 1.98574605904e-005
Gc1_99 0 n2 ns99 0 1.38018202923e-006
Gc1_100 0 n2 ns100 0 3.59360535226e-008
Gc1_101 0 n2 ns101 0 -0.000966367168291
Gc1_102 0 n2 ns102 0 -0.000656585709685
Gc1_103 0 n2 ns103 0 -0.00119034708734
Gc1_104 0 n2 ns104 0 0.000830627397011
Gc1_105 0 n2 ns105 0 -0.001602403518
Gc1_106 0 n2 ns106 0 0.00106682612257
Gc1_107 0 n2 ns107 0 -1.71149763578e-006
Gc1_108 0 n2 ns108 0 1.98924139335e-006
Gc1_109 0 n2 ns109 0 1.53849624598e-006
Gc1_110 0 n2 ns110 0 4.33890899436e-007
Gc1_111 0 n2 ns111 0 -3.18368761127e-005
Gc1_112 0 n2 ns112 0 -5.96085170444e-005
Gc1_113 0 n2 ns113 0 -0.000270509023668
Gc1_114 0 n2 ns114 0 -0.00234649823516
Gc1_115 0 n2 ns115 0 -0.00927076380842
Gc1_116 0 n2 ns116 0 -0.00593289773683
Gc1_117 0 n2 ns117 0 -0.00655102383693
Gc1_118 0 n2 ns118 0 1.18011923958e-005
Gc1_119 0 n2 ns119 0 4.8110723928e-005
Gc1_120 0 n2 ns120 0 0.00239402504242
Gc1_121 0 n2 ns121 0 0.00510953362208
Gc1_122 0 n2 ns122 0 0.00520886324526
Gc1_123 0 n2 ns123 0 3.57718111582e-008
Gc1_124 0 n2 ns124 0 -5.11175295917e-008
Gc1_125 0 n2 ns125 0 -4.94149238431e-006
Gc1_126 0 n2 ns126 0 1.30793226695e-005
Gc1_127 0 n2 ns127 0 1.44262734344e-005
Gc1_128 0 n2 ns128 0 2.12432251872e-007
Gc1_129 0 n2 ns129 0 -9.54686460435e-007
Gc1_130 0 n2 ns130 0 3.69225806756e-005
Gc1_131 0 n2 ns131 0 0.00041883347039
Gc1_132 0 n2 ns132 0 0.00155708913887
Gc1_133 0 n2 ns133 0 -0.000749938049577
Gc1_134 0 n2 ns134 0 -0.00188079745212
Gc1_135 0 n2 ns135 0 0.00106205445984
Gc1_136 0 n2 ns136 0 1.74752522275e-006
Gc1_137 0 n2 ns137 0 3.50980043305e-006
Gc1_138 0 n2 ns138 0 -7.37601196796e-007
Gc1_139 0 n2 ns139 0 -8.10902302023e-007
Gc1_140 0 n2 ns140 0 -1.07989066162e-005
Gc1_141 0 n2 ns141 0 2.08210904072e-005
Gc1_142 0 n2 ns142 0 -0.000616834676577
Gc1_143 0 n2 ns143 0 0.000690851968976
Gc1_144 0 n2 ns144 0 0.000108971225143
Gc1_145 0 n2 ns145 0 -0.00141977727449
Gc1_146 0 n2 ns146 0 -0.00655981971548
Gc1_147 0 n2 ns147 0 1.04079164024e-005
Gc1_148 0 n2 ns148 0 5.697330855e-005
Gc1_149 0 n2 ns149 0 0.00202467436185
Gc1_150 0 n2 ns150 0 0.00509621961519
Gc1_151 0 n2 ns151 0 0.00260773562289
Gc1_152 0 n2 ns152 0 -7.2124125005e-008
Gc1_153 0 n2 ns153 0 -3.21766425472e-008
Gc1_154 0 n2 ns154 0 -1.63259993712e-005
Gc1_155 0 n2 ns155 0 -4.92175974112e-006
Gc1_156 0 n2 ns156 0 6.75301392267e-005
Gc1_157 0 n2 ns157 0 3.17253038836e-007
Gc1_158 0 n2 ns158 0 -8.88951358441e-007
Gc1_159 0 n2 ns159 0 0.00184323340426
Gc1_160 0 n2 ns160 0 -0.000115450690691
Gc1_161 0 n2 ns161 0 -0.000365454627385
Gc1_162 0 n2 ns162 0 -0.000210027386296
Gc1_163 0 n2 ns163 0 -0.00158678889745
Gc1_164 0 n2 ns164 0 0.000954327970358
Gc1_165 0 n2 ns165 0 1.64746016734e-006
Gc1_166 0 n2 ns166 0 1.84471292107e-006
Gc1_167 0 n2 ns167 0 -9.18727181969e-007
Gc1_168 0 n2 ns168 0 -5.00405810895e-007
Gc1_169 0 n2 ns169 0 -1.80783670207e-006
Gc1_170 0 n2 ns170 0 2.84140668092e-005
Gc1_171 0 n2 ns171 0 -0.000507712992056
Gc1_172 0 n2 ns172 0 0.00140531790732
Gc1_173 0 n2 ns173 0 -4.64905184799e-005
Gc1_174 0 n2 ns174 0 -0.00246543556283
Gd1_1 0 n2 ni1 0 0.00248262695343
Gd1_2 0 n2 ni2 0 -0.000852433167688
Gd1_3 0 n2 ni3 0 -0.000847052470189
Gd1_4 0 n2 ni4 0 -0.00501072190415
Gd1_5 0 n2 ni5 0 -0.000192194906679
Gd1_6 0 n2 ni6 0 -0.00018650051049
Gc2_1 0 n4 ns1 0 0.00654007274212
Gc2_2 0 n4 ns2 0 -1.12334369036e-005
Gc2_3 0 n4 ns3 0 -5.26034517023e-005
Gc2_4 0 n4 ns4 0 -0.00228600399026
Gc2_5 0 n4 ns5 0 -0.00519624601406
Gc2_6 0 n4 ns6 0 -0.00496516130371
Gc2_7 0 n4 ns7 0 8.58242335239e-009
Gc2_8 0 n4 ns8 0 7.12601202757e-008
Gc2_9 0 n4 ns9 0 6.43537088535e-006
Gc2_10 0 n4 ns10 0 -1.43598367687e-005
Gc2_11 0 n4 ns11 0 -1.34263999086e-005
Gc2_12 0 n4 ns12 0 1.38591383911e-007
Gc2_13 0 n4 ns13 0 4.80895860315e-007
Gc2_14 0 n4 ns14 0 -4.60035627962e-005
Gc2_15 0 n4 ns15 0 -0.000705629246462
Gc2_16 0 n4 ns16 0 -0.00231586977516
Gc2_17 0 n4 ns17 0 0.00114688440237
Gc2_18 0 n4 ns18 0 0.0019258742067
Gc2_19 0 n4 ns19 0 -0.00103454909957
Gc2_20 0 n4 ns20 0 -7.21140368669e-007
Gc2_21 0 n4 ns21 0 -3.32875512223e-006
Gc2_22 0 n4 ns22 0 4.43537546595e-007
Gc2_23 0 n4 ns23 0 8.35657536588e-007
Gc2_24 0 n4 ns24 0 1.16099144572e-005
Gc2_25 0 n4 ns25 0 -8.73354405586e-006
Gc2_26 0 n4 ns26 0 -0.000374588547182
Gc2_27 0 n4 ns27 0 0.000400908809783
Gc2_28 0 n4 ns28 0 -0.00145272012583
Gc2_29 0 n4 ns29 0 -0.00122159833621
Gc2_30 0 n4 ns30 0 0.00660844730604
Gc2_31 0 n4 ns31 0 1.7734113137e-005
Gc2_32 0 n4 ns32 0 3.86484880968e-005
Gc2_33 0 n4 ns33 0 0.00245826632687
Gc2_34 0 n4 ns34 0 0.0117101986119
Gc2_35 0 n4 ns35 0 0.00356154358118
Gc2_36 0 n4 ns36 0 2.97994988559e-007
Gc2_37 0 n4 ns37 0 1.04476705062e-007
Gc2_38 0 n4 ns38 0 4.29989279827e-005
Gc2_39 0 n4 ns39 0 6.93783963014e-006
Gc2_40 0 n4 ns40 0 -0.000483874692048
Gc2_41 0 n4 ns41 0 5.2263101475e-009
Gc2_42 0 n4 ns42 0 1.01838813014e-006
Gc2_43 0 n4 ns43 0 0.000389066754738
Gc2_44 0 n4 ns44 0 0.000164421878335
Gc2_45 0 n4 ns45 0 0.00430622589981
Gc2_46 0 n4 ns46 0 -0.0013395293904
Gc2_47 0 n4 ns47 0 0.00214742912561
Gc2_48 0 n4 ns48 0 -0.000992103278411
Gc2_49 0 n4 ns49 0 -5.16989300208e-007
Gc2_50 0 n4 ns50 0 -9.50532339231e-007
Gc2_51 0 n4 ns51 0 1.80367199116e-007
Gc2_52 0 n4 ns52 0 2.96133056099e-007
Gc2_53 0 n4 ns53 0 6.25671120719e-005
Gc2_54 0 n4 ns54 0 5.4137090025e-005
Gc2_55 0 n4 ns55 0 0.00316217041032
Gc2_56 0 n4 ns56 0 0.00016165324929
Gc2_57 0 n4 ns57 0 0.00288454863751
Gc2_58 0 n4 ns58 0 0.0373134264514
Gc2_59 0 n4 ns59 0 0.00656583725132
Gc2_60 0 n4 ns60 0 -9.85447504356e-006
Gc2_61 0 n4 ns61 0 -6.18367000326e-005
Gc2_62 0 n4 ns62 0 -0.00218213861345
Gc2_63 0 n4 ns63 0 -0.0049683859738
Gc2_64 0 n4 ns64 0 -0.00251034189482
Gc2_65 0 n4 ns65 0 3.91532594014e-008
Gc2_66 0 n4 ns66 0 4.92352814319e-008
Gc2_67 0 n4 ns67 0 1.21811440446e-005
Gc2_68 0 n4 ns68 0 -3.50337030636e-006
Gc2_69 0 n4 ns69 0 -4.84000108642e-005
Gc2_70 0 n4 ns70 0 3.33054148521e-007
Gc2_71 0 n4 ns71 0 3.00807659135e-007
Gc2_72 0 n4 ns72 0 -0.000664932679013
Gc2_73 0 n4 ns73 0 0.00112848183467
Gc2_74 0 n4 ns74 0 -0.00154438143256
Gc2_75 0 n4 ns75 0 -0.000887686816833
Gc2_76 0 n4 ns76 0 0.00172436232561
Gc2_77 0 n4 ns77 0 -0.000828756505606
Gc2_78 0 n4 ns78 0 5.22466841431e-007
Gc2_79 0 n4 ns79 0 -2.58281180459e-006
Gc2_80 0 n4 ns80 0 3.4968280464e-007
Gc2_81 0 n4 ns81 0 7.5401752884e-007
Gc2_82 0 n4 ns82 0 9.06864085391e-006
Gc2_83 0 n4 ns83 0 -6.4392990579e-006
Gc2_84 0 n4 ns84 0 -0.000364759597856
Gc2_85 0 n4 ns85 0 0.000274569971958
Gc2_86 0 n4 ns86 0 -0.00193575558354
Gc2_87 0 n4 ns87 0 -0.00143406947879
Gc2_88 0 n4 ns88 0 -0.00654243600983
Gc2_89 0 n4 ns89 0 1.12230043045e-005
Gc2_90 0 n4 ns90 0 4.77068328829e-005
Gc2_91 0 n4 ns91 0 0.00236420207227
Gc2_92 0 n4 ns92 0 0.00512410544802
Gc2_93 0 n4 ns93 0 0.005066465183
Gc2_94 0 n4 ns94 0 9.03822717111e-009
Gc2_95 0 n4 ns95 0 -6.9845615045e-008
Gc2_96 0 n4 ns96 0 -9.44232835135e-006
Gc2_97 0 n4 ns97 0 1.17377309735e-005
Gc2_98 0 n4 ns98 0 2.74086273378e-005
Gc2_99 0 n4 ns99 0 3.03685650478e-007
Gc2_100 0 n4 ns100 0 -9.14258791431e-007
Gc2_101 0 n4 ns101 0 0.000110996853942