**************************************************
* Manufacturer:           Würth Elektronik
* Kinds:                  Optocoupler Phototransistor
* Matchcode:              WL-OCPT
* Library Type:           LTspice
* Version:                rev22b
* Created/modified by:    Ella      
* Date and Time:          2022-11-10
* Team:                   eiSos EDA Service  
* Contact:                libraries@we-online.com
**************************************************
* Copyright(C) 2022 Würth Elektronik eiSos GmbH & Co. KG
* All Rights Reserved.
**************************************************
* Disclaimer: While Würth Elektronik eiSos has made every reasonable effort to ensure the accuracy
* of the simulation models provided, Würth Elektronik eiSos does not guarantee the exemption of error on
* the simulation models, nor does Würth Elektronik eiSos guarantee that the simulation model is current.
* Würth Elektronik eiSos reserves the right to make any adjustments at any time without notice.
* Würth Elektronik eiSos expressly disclaims all implied warranties regarding this simulation model.
**************************************************
********************************************************
***********************Series_827***********************
********************************************************
***********************
.SUBCKT Series_827_14082718xxx A K C E A1 K1 C1 E1 
D1 A D LED	
VH D K 0 
Hd R 0 VH 1	
Rd R T 10k
Cd T 0 0.02n
Rg B 0 4G
Q1 C B E Detector

G1 C B TABLE
+ {if(V(T)<0.01,
+ (0.75567E+01*PWR(V(T),(0.12975E+01+0.48156E+01*V(T)))-.37487E+00*V(T) )/100,
+ (0.19358E-01*EXP((PWR((Ln(V(T))+.34026E+01),2))/-.18146E+01)+0.29107E+00*V(T))/100)}
+ (0,0.0000000001) (10,10)

D2 A1 D1 LED	
VH1 D1 K1 0 
Hd1 R1 0 VH1 1	
Rd1 R1 T1 10k
Cd1 T1 0 0.02n
Rg1 B1 0 4G
Q2 C1 B1 E1 Detector

G2 C1 B1 TABLE
+ {if(V(T1)<0.01,
+ (0.75567E+01*PWR(V(T1),(0.12975E+01+0.48156E+01*V(T1)))-.37487E+00*V(T1) )/100,
+ (0.19358E-01*EXP((PWR((Ln(V(T1))+.34026E+01),2))/-.18146E+01)+0.29107E+00*V(T1))/100)}
+ (0,0.0000000001) (10,10)

.model LED D 
+ IS=209.97E-18
+ N=1.5072
+ RS=1.1904
+ IKF=.30047
+ CJO=1.0000E-12
+ M=.3333
+ VJ=.75
+ BV=6
+ IBV=10.00E-6
+ TT=5.0000E-9
.model Detector NPN IS=3.64P BF=625 NF=1.3 BR=10 TF=20N TR=350n
+ CJE=5.16P VJE=0.99 MJE=0.2411274 CJC=18P VJC=0.597478 MJC=0.431978
+ ISC=0.207N VAF=100 IKF=10 ISS=0 CJS=7.74p VJS=0.61 MJS=0.31
.ends
***********************