**************************************************
* Manufacturer:           Würth Elektronik
* Kinds:                  Optocoupler Phototransistor
* Matchcode:              WL-OCPT
* Library Type:           LTspice
* Version:                rev22b
* Created/modified by:    Ella      
* Date and Time:          2022-11-10
* Team:                   eiSos EDA Service  
* Contact:                libraries@we-online.com
**************************************************
* Copyright(C) 2022 Würth Elektronik eiSos GmbH & Co. KG
* All Rights Reserved.
**************************************************
* Disclaimer: While Würth Elektronik eiSos has made every reasonable effort to ensure the accuracy
* of the simulation models provided, Würth Elektronik eiSos does not guarantee the exemption of error on
* the simulation models, nor does Würth Elektronik eiSos guarantee that the simulation model is current.
* Würth Elektronik eiSos reserves the right to make any adjustments at any time without notice.
* Würth Elektronik eiSos expressly disclaims all implied warranties regarding this simulation model.
**************************************************
********************************************************
***********************Series_814***********************
********************************************************
***********************
.SUBCKT Series_814_14081424x1x0 A K C E 
D1 A D LED
VH D K 0 
Hd R 0 VH 1
Rd R T 10k
Cd T 0 0.02n
Rg B 0 4G
Q1 C B E Detector 

G1 C B TABLE
+ {if(V(T)<0.015,
+ (0.76070E+01*PWR(V(T),(0.12094E+01+0.26644E+01*V(T)))-.76178E+00*V(T))/100,
+ (0.10247E+04*PWR(V(T),(0.21850E+01+0.26273E+02*V(T)))+0.53977E+00*V(T))/99)}
+ (0,0.0000000001) (10,10)

.model LED D 
+ IS=87.786E-18
+ N=1.4594
+ RS=1.1118
+ IKF=160.02
+ CJO=1.0000E-12
+ M=.3333
+ VJ=.75
+ BV=6
+ IBV=10.00E-6
+ TT=5.0000E-9
.model Detector NPN IS=3.64P BF=100 NF=1.145 BR=10 TF=20N TR=350n
+ CJE=5.16P VJE=0.99 MJE=0.2411274 CJC=18P VJC=0.597478 MJC=0.431978
+ ISC=0.207N VAF=65 IKF=1 ISS=0 CJS=7.74p VJS=0.61 MJS=0.31
.ends
***********************
.SUBCKT Series_814_14081424x0x0 A K C E 
D1 A D LED
VH D K 0 
Hd R 0 VH 1
Rd R T 10k
Cd T 0 0.02n
Rg B 0 4G
Q1 C B E Detector 

G1 C B TABLE
+ {if(V(T)<0.015,
+ (0.76070E+01*PWR(V(T),(0.12094E+01+0.26644E+01*V(T)))-.76178E+00*V(T))/100,
+ (0.10247E+04*PWR(V(T),(0.21850E+01+0.26273E+02*V(T)))+0.53977E+00*V(T))/99)}
+ (0,0.0000000001) (10,10)

.model LED D 
+ IS=87.786E-18
+ N=1.4594
+ RS=1.1118
+ IKF=160.02
+ CJO=1.0000E-12
+ M=.3333
+ VJ=.75
+ BV=6
+ IBV=10.00E-6
+ TT=5.0000E-9
.model Detector NPN IS=3.64P BF=150 NF=1.145 BR=10 TF=20N TR=350n
+ CJE=5.16P VJE=0.99 MJE=0.2411274 CJC=18P VJC=0.597478 MJC=0.431978
+ ISC=0.207N VAF=65 IKF=1 ISS=0 CJS=7.74p VJS=0.61 MJS=0.31
.ends
***********************