Version 4
SHEET 1 1276 924
WIRE -368 -16 -384 -16
WIRE -256 -16 -288 -16
WIRE -112 -16 -256 -16
WIRE -48 128 -48 16
WIRE 0 128 -48 128
WIRE 192 -16 16 -16
WIRE 192 32 192 -16
WIRE 256 -16 192 -16
FLAG -384 -16 0
FLAG 256 -16 B
FLAG 192 112 0
FLAG -256 -16 A
FLAG 0 128 px
SYMBOL voltage -272 -16 M270
WINDOW 0 32 56 VTop 0
WINDOW 3 -98 -184 VRight 0
WINDOW 123 0 0 Left 0
WINDOW 39 -82 -139 VRight 0
SYMATTR InstName V1
SYMATTR Value PWL(0 0 1 {vmax} 2 0 3 {-vmax} 4 0)
SYMBOL res 176 16 R0
SYMATTR InstName R1
SYMATTR Value 1
SYMBOL Backlash -48 -16 R0
WINDOW 0 -89 -49 Left 0
WINDOW 39 -104 64 Left 0
SYMATTR InstName X1
SYMATTR SpiceLine backlash=10m eps=0.1m
TEXT -454 -158 Left 0 !.tran 0 4.5 0 2m uic
TEXT -456 -96 Left 0 !.param vmax=0.1
TEXT -456 -192 Left 0 ;Test for Backlash Element
TEXT 208 -48 Left 0 ;Speed
TEXT -456 -128 Left 0 !.options plotwinsize=0
TEXT -32 104 Left 0 ;rel. position
