Version 4
SHEET 1 1076 680
WIRE 240 -256 16 -256
WIRE 240 -224 240 -256
WIRE 784 -128 544 -128
WIRE 544 -32 544 -128
WIRE 592 -32 544 -32
WIRE 784 -16 784 -128
WIRE 784 -16 656 -16
WIRE 240 0 240 -144
WIRE 256 0 240 0
WIRE 368 0 336 0
WIRE 416 0 368 0
WIRE 544 0 496 0
WIRE 592 0 544 0
WIRE 160 32 144 32
WIRE 240 32 240 0
WIRE 240 32 224 32
WIRE 368 32 368 0
WIRE 624 48 624 16
WIRE 16 96 16 -256
WIRE 368 112 368 96
WIRE 784 112 784 -16
WIRE 784 112 368 112
WIRE 16 128 16 96
WIRE 144 128 144 32
WIRE 240 160 240 32
WIRE 544 160 544 0
WIRE 784 160 784 112
WIRE 16 256 16 208
WIRE 144 256 144 208
WIRE 144 256 16 256
WIRE 240 256 240 240
WIRE 240 256 144 256
WIRE 544 256 544 224
WIRE 544 256 240 256
WIRE 784 256 784 240
WIRE 784 256 544 256
WIRE 16 320 16 256
FLAG 16 320 0
FLAG 16 96 Vbat
FLAG 784 -16 Vout
FLAG 624 -48 Vbat
FLAG 624 48 0
SYMBOL voltage 16 112 R0
WINDOW 123 0 0 Left 0
WINDOW 39 0 0 Left 0
SYMATTR InstName V1
SYMATTR Value 9
SYMBOL res 256 -128 R180
WINDOW 0 36 76 Left 0
WINDOW 3 36 40 Left 0
SYMATTR InstName R5
SYMATTR Value 100k
SYMBOL res 224 144 R0
SYMATTR InstName R7
SYMATTR Value 100k
SYMBOL voltage 144 112 R0
WINDOW 123 24 132 Left 0
WINDOW 39 0 0 Left 0
WINDOW 3 24 104 Invisible 0
SYMATTR Value2 AC 1
SYMATTR Value ""
SYMATTR InstName V2
SYMBOL res 800 256 R180
WINDOW 0 36 76 Left 0
WINDOW 3 36 40 Left 0
SYMATTR InstName R8
SYMATTR Value 1k
SYMBOL res 352 -16 R90
WINDOW 0 0 56 VBottom 0
WINDOW 3 32 56 VTop 0
SYMATTR InstName R1
SYMATTR Value 10k
SYMBOL res 512 -16 R90
WINDOW 0 0 56 VBottom 0
WINDOW 3 32 56 VTop 0
SYMATTR InstName R2
SYMATTR Value 10k
SYMBOL cap 528 160 R0
SYMATTR InstName C1
SYMATTR Value 100n
SYMBOL cap 352 32 R0
SYMATTR InstName C2
SYMATTR Value 100n
SYMBOL cap 224 16 R90
WINDOW 0 0 32 VBottom 0
WINDOW 3 32 32 VTop 0
SYMATTR InstName C3
SYMATTR Value 100µF
SYMBOL Robertugo\\OPAMP5 624 -80 R0
SYMATTR InstName U2
SYMATTR SpiceModel LM741/NS
TEXT 32 288 Left 0 !;op
TEXT 120 288 Left 0 !.ac dec 25 1 3kilohertz
TEXT 376 -200 Left 0 ;Cut-Off Frequency: 159Hz
