*                    ZETEX Spice Model Library v5.4
*                     (Last Revised 21 Feb 2006)
*                      
*
* For the latest version of the ZETEX Semiconductors Spice library
* goto the applications section of the ZETEX web site at
* http://www.zetex.com/ or contact the company directly at
* spice@zetex.com
*
*
*ZETEX BBY31 Spice Model v1.0 Last Revised 18/8/92
*
.MODEL BBY31 D IS=10.01E-15 N=1.095 RS=.2082 XTI=3 
+      EG=1.11 CJO=27.36E-12 M=1.001 VJ=2.099 FC=.5 BV=45.12 
+      IBV=92.44E-3 TT=145.7E-9
+      ISR=7.447E-12 NR=2.334 IKF=10.15
*
*NOTES: FOR RF OPERATION ADD PACKAGE INDUCTANCE OF 2.5E-9H AND SET
*  RS=0.60 FOR 2V, 0.53 FOR 5V, 0.45 FOR 10V OR 0.39 FOR 20V BIAS.
*
*$
*
*ZETEX BBY40 Spice Model v1.0 Last Revised 18/8/92
*
.MODEL BBY40 D IS=7.417E-15 N=1.058 RS=.1259 XTI=3 
+      EG=1.11 CJO=64.39E-12 M=1.013 VJ=2.566 FC=.5 BV=45.12 
+      IBV=.1232 TT=215E-9
+      ISR=1.731E-12 NR=2.27 IKF 9.882
*
*NOTES: FOR RF OPERATION ADD PACKAGE INDUCTANCE OF 2.5E-9H AND SET
*  RS=0.47 FOR 2V, 0.39 FOR 5V, 0.32 FOR 10V OR 0.28 FOR 20V BIAS.
*
*$
*
*ZETEX BCV72 Spice Model v1.0 Last Revised 1/4/90
*
.MODEL BCV72 NPN IS =1.8E-14 ISE=5.0E-14 NF =.9955 NE =1.46 BF =400 BR =35.5
+IKF=.14 IKR=.03 ISC=1.72E-13 NC =1.27 NR =1.005 RB =.56 RE =.6 RC =.25 VAF=80
+VAR=12.5 CJE=13E-12 TF =.64E-9 CJC=4E-12 TR =50.72E-9 VJC=.54 MJC=.33
*
*$
*
*ZETEX BCX38B Spice Model v1.0 Last Revised 4/9/90
*
.SUBCKT BCX38B 1 2 3
*              C B E
Q1 1 2 4 SUB38B
Q2 1 4 3 SUB38B 12.75
*
.MODEL SUB38B NPN IS =1.1E-14 ISE=7.1E-15 NF =1.012 NE =1.4758 BF =147 IKF=.12
+BR =15 IKR=.05 RE =1.3 RC =.5 RB =.3 VAF=150 CJE=14.5E-12 CJC=4.14E-12
+VJC=.515 MJC=.26 TF =1.15E-9 TR =75E-9
.ENDS BCX38B
*
*$
*
*ZETEX BFQ31 Spice Model v1.0 Last Revised 1/9/90
*
.MODEL BFQ31 NPN IS =1.73E-13 BF =200 VAF=90 IKF=8.8E-3 ISE=241E-12 NE =1.701
+BR =3.124 VAR=9.7 NR =.9705 IKR=.02 ISC=8.31E-13 NC =1.112 RB =17 RE =2.13
+RC =30 CJE=2.27E-12 TF =.2E-9 CJC=1.2E-12 TR =1E-9 VJC=.415 MJC=.145
*
*$
*
*ZETEX BFS17 Spice Model v1.0 Last Revised 9/3/93
*
.MODEL BFS17  NPN IS =4.9E-16 NF =.993 BF =93 VAF=90 IKF=.055 
+             ISE=1E-14 NE =1.800 BR =25 VAR=6 NR =1.005 IKR=.01 
+             ISC=4.5E-15 NC =1.2 RB =7 RBM=.5 IRB=5E-4 RE =.5 
+             RC =2.0 TF =5E-11 XTF=100 ITF=2.3 TR =2.4E-8 
+             CJE=1.18E-12 CJC=1.54E-12 VJC=.559 MJC=.25 VJE=1.12 
+             MJE=.4
*
* NOTE: FOR RF OPERATION ADD PACKAGE INDUCTANCE OF 1.2E-9H PER LEAD
*
*$
*
*ZETEX FMMT489  Spice Model v1.0 Last Revised 13/10/93
*
.MODEL FMMT489 NPN IS =1.04E-13  BF =195 IKF =1.9 VAF =160 
+              ISE=1.83E-14 NE =1.35 NR =1.00 BR =140 IKR=0.5 
+              VAR=30 ISC=6.00E-12 NC =1.5 RB =0.3 RE =0.065
+              RC =0.11 CJC=25.37E-12 MJC=0.3281 VJC=0.464 
+              CJE=122E-12 MJE=0.3412 VJE=0.7631 TF =0.86E-9 
+              TR =12.5E-9
*
*$
*
*ZETEX FMMT491A Spice Model v1.0 Last Revised 20/5/93
*
.MODEL FMMT491A NPN IS =3.05E-13 NF =1.0034 BF =650 IKF=0.8 VAF=165
+               ISE=8.0191E-14 NE =1.4126 NR =1.001 BR =120 IKR=0.6 VAR=69 
+               ISC=1.6E-12 NC =1.38 RB =0.065 RE =0.109 RC =0.075 
+               CJC=17.2E-12 MJC=0.3429 VJC=0.4298 CJE=96E-12 
+               TF =0.71E-9 TR =2.5E-9
*
*$
*
*ZETEX FMMT549 Spice Model v1.0 Last Revised 11/10/94
*
.MODEL FMMT549 PNP IS =1.3E-13 BF =200 IKF=1.8 VAF=104
+              ISE=6E-14 NE =1.45 BR =50 IKR=0.2 VAR=8 
+              ISC=3.5E-14 NC =1.23 RB =0.7 RE =0.063 RC =0.122 
+              CJC=55E-12 MJC=0.3541 VJC=0.1928 CJE=120.9E-12 
+              MJE=.4685 VJE=1.041 TF =0.51E-9 TR =3.6E-9
*
*$
*
*ZETEX FMMT589 Spice Model v1.0 Last Revised 11/10/94
*
.MODEL FMMT589 PNP IS =1.3E-13 BF =200 IKF=1.8 VAF=104
+              ISE=6E-14 NE =1.45 BR =50 IKR=0.2 VAR=8 
+              ISC=3.5E-14 NC =1.23 RB =0.7 RE =0.063 RC =0.122 
+              CJC=55E-12 MJC=0.3541 VJC=0.1928 CJE=120.9E-12 
+              MJE=.4685 VJE=1.041 TF =0.51E-9 TR =3.6E-9
*
*$
*
*ZETEX FMMT591A Spice Model v1.0 Last Revised 21/5/93
*
.MODEL FMMT591A PNP IS =3.0572E-13 NF =1.0103 BF =450 IKF=0.93 VAF=20
+               ISE=1.5E-14 NE =1.52 NR =1.007 BR =160 IKR=0.08 VAR=33 
+               ISC=3.8736E-14 NC =1.0893 RB =0.112 RE =0.144 RC =0.156 
+               CJC=42E-12 MJC=0.4449 VJC=0.3131 CJE=91E-12 
+               TF =0.51E-9 TR =3.6E-9
*
*$
*
*ZETEX FMMT617 Spice Model v1.0 Last Revised 19/4/94
*
.MODEL FMMT617  NPN IS =5.92E-13 BF =500 IKF=5 VAF=34.6
+               ISE=1.27E-13 NE =1.425 NR =1 BR =280 IKR=2 VAR=12.25 
+               ISC=6.138E-13 NC =1.46 RB =0.1 RE =0.025 RC =0.017 
+               CJC=76E-12 MJC=0.2981 VJC=0.4414 CJE=230E-12 
+               MJE=0.3569 VJE=0.7042 TF =1.12E-9 TR =2.15E-9
*
*$
*
*ZETEX FMMT618 Spice Model v1.0 Last Revised 8/7/93
*
.MODEL FMMT618  NPN IS =5.611E-13 NF =1.0022 BF =480 IKF=4.6 VAF=51
+               ISE=1.73E-13 NE =1.4 NR =1.0002 BR =200 IKR=3 VAR=25 
+               ISC=7.3152E-13 NC =1.47 RB =0.032 RE =0.027 RC =0.025 
+               CJC=59E-12 MJC=0.2651 VJC=0.3051 CJE=216E-12 
+               TF =0.95E-9 TR =2.25E-9
*
*$
*
*ZETEX FMMT619 Spice Model v1.0 Last Revised 8/7/93
*
.MODEL FMMT619  NPN IS =5.8032E-13 NF =1.0027 BF =485 IKF=2.2 VAF=84
+               ISE=1.5933E-13 NE =1.4148 NR =1.0006 BR =110 IKR=1.4 
+               VAR=51 ISC=5E-12 NC =1.45 RB =0.042 RE =0.033 
+               RC =0.0375 CJC=40E-12 MJC=0.3708 VJC=0.4347 CJE=217E-12 
+               TF =0.78E-9 TR =9E-9
*
*$
*
*ZETEX FMMT624 Spice Model v1.0 Last Revised 12/7/93
*
.MODEL FMMT624  NPN IS =6.855E-13 NF =1.0037 BF =540 IKF=0.95 VAF=231
+               ISE=2.23E-13 NE =1.4195 NR =1.0024 BR =100 IKR=2 
+               VAR=61 ISC=3E-12 NC =1.2276 RB =0.036 RE =0.065 
+               RC =0.1 CJC=28E-12 MJC=0.4348 VJC=0.4934 CJE=207E-12 
+               TF =0.85E-9 TR =49E-9
*
*$
*
*ZETEX FMMT625 Spice Model v1.0 Last Revised 13/7/93
*
.MODEL FMMT625  NPN IS =6.2024E-13 NF =1.0037 BF =450 IKF=0.6 VAF=428
+               ISE=2.3242E-13 NE =1.4689 NR =1.0033 BR =250 IKR=1.7 
+               VAR=73 ISC=7.66E-13 NC =1.1546 RB =0.036 RE =0.090 
+               RC =0.143 CJC=24.5E-12 MJC=0.4246 VJC=0.4425 CJE=210E-12 
+               TF =0.99E-9 TR =60E-9
*
*$
*
*ZETEX FMMT717 Spice Model v1.0 Last Revised 25/3/94
*
.MODEL FMMT717 PNP IS =5.5E-13  BF =500 IKF =3 VAF =14.93 
+              ISE=1.75E-13 NE =1.5 NR =1.00 BR =280 IKR=0.3 
+              VAR=5.64 ISC=6.01E-13 NC =1.34 RB =0.3 RE =0.03
+              RC =0.025 CJC=116.9E-12 MJC=0.3456 VJC=0.4576 
+              CJE=223.6E-12 MJE=0.4803 VJE=0.9091 TF =1.2E-9 
+              TR =2E-9
*
*$
*
*ZETEX FMMT718 Spice Model v1.0 Last Revised 15/12/93
*
.MODEL FMMT718 PNP IS =6.8E-13  BF =480 IKF =2 VAF =23 
+              ISE=0.8E-13 NE =1.5567 NR =1.00 BR =70 IKR=0.4 
+              VAR=7 ISC=7.5E-14 NC =1.19 RB =0.085 RE =0.04
+              RC =0.045 CJC=70.02E-12 MJC=0.4685 VJC=0.7714 
+              CJE=203.6E-12 MJE=0.5029 VJE=0.9403 TF =0.71E-9 
+              TR =23.7E-9
*
*$
*
*ZETEX FMMT722 Spice Model v1.0 Last Revised 15/12/93
*
.MODEL FMMT722 PNP IS =6.348E-13  BF =450 IKF =1.25 VAF =30.24 
+              ISE=1.375E-13 NE =1.5 NR =1.00 BR =25 IKR=0.8 
+              VAR=12.6 ISC=1E-13 NC =1.093 RB =0.081 RE =0.09
+              RC =0.1 CJC=49.87E-12 MJC=0.494 VJC=0.7653 
+              CJE=199E-12 MJE=0.5045 VJE=0.9617 TF =0.57E-9 
+              TR =57E-9
*
*$
*
*ZETEX FMMT723 Spice Model v1.0 Last Revised 15/12/93
*
.MODEL FMMT723 PNP IS =5.5E-13  BF =440 IKF =1 VAF =50.88 
+              ISE=1.554E-13 NE =1.477 NR =1.03 BR =30 IKR=0.7 
+              VAR=13.79 ISC=1.3E-12 NC =1.198 RB =1.5 RE =0.02
+              RC =0.14 CJC=45.74E-12 MJC=0.4889 VJC=0.711 
+              CJE=204.3E-12 MJE=0.5105 VJE=0.9711 TF =0.63E-9 
+              TR =95E-9
*
*$
*
*ZETEX FMMTH10 Spice Model v1.0 Last Revised 1/11/93
*
.MODEL FMMTH10 NPN IS =5.6E-16  BF =133 IKF=2.5E-2 VAF=40
+              ISE=6.367E-15 NE =1.75 NR =0.99 BR =8 IKR=1E-2 VAR=6 
+              ISC=1E-15 NC =1.167 RB =5 RE =0.65 RC =1.8
+              CJC=1.197E-12 MJC=0.2588 VJC=0.5617 CJE=1.012E-12 
+              MJE=0.4496 VJE=1.195 RBM =0.5 IRB =5E-4
+              TF =6E-11 TR =40.5E-9 ITF =2.5 XTF =1000
*
*$
*
*ZETEX FMMV105G Spice Model v1.0 Last Revised 18/8/92
*
.MODEL FMMV105G D IS=10.01E-15 N=1.095 RS=.2082 XTI=3 
+      EG=1.11 CJO=27.36E-12 M=1.001 VJ=2.099 FC=.5 BV=45.12 
+      IBV=92.44E-3 TT=145.7E-9
+      ISR=7.447E-12 NR=2.334 IKF=10.15
*
*NOTES: FOR RF OPERATION ADD PACKAGE INDUCTANCE OF 2.5E-9H AND SET
*  RS=0.60 FOR 2V, 0.53 FOR 5V, 0.45 FOR 10V OR 0.39 FOR 20V BIAS.
*
*$
*
*ZETEX FMMV109 Spice Model v1.0 Last Revised 18/8/92
*
.MODEL FMMV109 D IS=7.312E-15 N=1.055 RS=.1524 XTI=3 
+      EG=1.11 CJO=61.3E-12 M=1.016 VJ=2.659 FC=.5 BV=45.13 
+      IBV=.1294 TT=196.2E-9
+      ISR=2.266E-12 NR=1.994 IKF=10.18
*
*NOTES: FOR RF OPERATION ADD PACKAGE INDUCTANCE OF 2.5E-9H AND SET
*  RS=0.47 FOR 2V, 0.39 FOR 5V, 0.32 FOR 10V OR 0.28 FOR 20V BIAS.
*
*$
*
*ZETEX FZT604 Spice Model v1.0 Last Revised 27/8/91
*
.SUBCKT FZT604 1 2 3
*              C B E
Q1 1 2 4 SUB605
Q2 1 4 3 SUB605 3.46
*
.MODEL SUB605 NPN IS=4.8E-14 BF=170 VAF=542 NF=1.0039 IKF=0.2 ISE=1.5E-14
+NE=1.55 BR=12 VAR=20 NR=1.007 IKR=0.35 ISC=7.486E-14 NC=1.0984 RB=0.17 RE=0.3
+RC=0.14 CJE=81E-12 CJC=10.8E-12 VJC=0.85 MJC=0.41 TF=1.024E-9 TR=700E-9
.ENDS FZT604
*
*$
*
*ZETEX FZT605 Spice Model v1.0 Last Revised 27/8/91
*
.SUBCKT FZT605 1 2 3
*              C B E
Q1 1 2 4 SUB605
Q2 1 4 3 SUB605 3.46
*
.MODEL SUB605 NPN IS=4.8E-14 BF=170 VAF=542 NF=1.0039 IKF=0.2 ISE=1.5E-14
+NE=1.55 BR=12 VAR=20 NR=1.007 IKR=0.35 ISC=7.486E-14 NC=1.0984 RB=0.17 RE=0.3
+RC=0.14 CJE=81E-12 CJC=10.8E-12 VJC=0.85 MJC=0.41 TF=1.024E-9 TR=700E-9
.ENDS FZT605
*
*$
*
*ZETEX FZT649 Spice Model v1.0 Last Revised 17/7/90
*
.MODEL FZT649 NPN IS =3E-13 BF =225 VAF=80 IKF=2.8 ISE=1.1E-13 NE =1.37
+BR =110 VAR=28 NR =.972 IKR=0.8 ISC=6.5E-13 NC =1.372 RB =0.3 RE =.063
+RC =.07 CJE=325E-12 TF =1E-9 CJC=70E-12 TR =10E-9
*
*$
*
*ZETEX FZT651 Spice Model v1.0 Last Revised 16/1/91
*
.MODEL FZT651 NPN IS =2.218E-13 NF =.9956 BF =230 IKF=2 VAF=100 ISE=2.9E-14
+NE =1.35 NR =.995 BR =56 IKR=1 VAR=30 ISC=2.971E-13 NC =1.321 RB =.04
+RE =.075 RC =.069 CJC=51E-12 MJC=.42 VJC=.595 CJE=318E-12 TF =.77E-9
+TR =27E-9
*
*$
*
*ZETEX FZT688B Spice Model v1.0 Last Revised 8/11/90
*
.MODEL FZT688B NPN IS =1.09E-12 NF =0.9935 BF =1180 IKF=5.2 VAF=25
+ISE=1.3E-13 NE =1.35 NR =0.992 BR =790 IKR=.5 VAR=5 ISC=0.174E-12
+NC =1.399 RB =.3 RE =.036 RC =.034 CJC=104E-12 MJC=.29 VJC=.46
+CJE=280E-12 TF =.93E-9 TR =1.05E-9
*
*$
*
*ZETEX FZT690B Spice Model v1.0 Last Revised 18/11/90
*
.MODEL FZT690B NPN IS =2.505E-12 NF =1.0058 BF =1360 IKF=1.3 VAF=35
+ISE=.24E-12 NE =1.38 NR =1.001 BR =125 IKR=1 VAR=8 ISC=.435E-12
+NC =1.213 RB =.2 RE =.043 RC =.04 CJC=54.3E-12 MJC=.475 VJC=.765
+CJE=247E-12 TF =.851E-9 TR =15.7E-9
*Note: This Model may be inaccurate for collector currents above 2A.
*
*$
*
*ZETEX FZT692B Spice Model v1.0 Last Revised 31/10/90
*
.MODEL FZT692B NPN IS =1.87E-12 NF =.9983 BF =1400 IKF=0.73 VAF=29
+ISE=.21E-12 NE =1.378 NR =.997 BR =68 IKR=.55 VAR=12 ISC=.44E-12
+NC =1.14 RB =.2 RE =.05 RC =.048 CJC=42.5E-12 MJC=.475 VJC=.625
+CJE=233E-12 TF =.77E-9 TR =39E-9
*Note: This Model may be inaccurate for collector currents above 1.5A.
*
*$
*
*ZETEX FZT694B Spice Model v1.0 Last Revised 1/11/90
*
.MODEL FZT694B NPN IS =1.59E-12 NF =1.001 BF =1009 IKF=0.26 VAF=45
+ISE=.253E-12 NE =1.445 NR =1 BR =40 IKR=1 VAR=30 ISC=0.326E-12
+NC =1.075 RB =0.2 RE =0.065 RC =0.075 CJC=35.5E-12 MJC=.465
+VJC=.515 CJE=258E-12 TF =.763E-9 TR =130E-9
*Note: This Model may be inaccurate for collector currents above 0.6A.
*
*$
*
*ZETEX FZT705 Spice Model v1.0 Last Revised 9/8/90
*
.SUBCKT FZT705 1 2 3
*              C B E
Q1 1 2 4 SUB704
Q2 1 4 3 SUB704 4
*
.MODEL SUB704 PNP IS =3.35584E-14 BF =85 VAF=212 NF =1.002 IKF=.817
+ISE=3.6E-13 NE =4.1 BR =24 VAR=6 NR =.999 IKR=.114 ISC=1.406E-13 NC =1.13
+RB =1.1 RE =.4 RC =.0339 CJE=100E-12 CJC=37E-12 VJC=1.045 MJC=.595
.ENDS FZT705
*
*$
*
*ZETEX FZT749 Spice Model v1.0 Last Revised 17/7/90
*
.MODEL FZT749 PNP IS =2.6E-13 BF =210 VAF=27 IKF=7 ISE=1.2E-13 NE =1.43 BR =70
+VAR=14 IKR=.6 ISC=12.04E-13 NC =1.4474 NF =.999 NR =.982 RB =.3 RE =.065
+RC =.04 CJE=410E-12 TF =.65E-9 CJC=140E-12 TR =12E-9 MJC=.35 VJC=.305
*
*$
*
*ZETEX FZT751 Spice Model v1.0 Last Revised 23/1/91
*
.MODEL FZT751 PNP IS =2.715E-13 BF =170 VAF=70 NF =1.004 IKF=2.75 ISE=1E-13
+NE =1.535 BR =23 VAR=40 NR =1.005 IKR=.55 ISC=5.15E-14 NC =1.13 RB =.07
+RE =.065 RC =.085 CJE=360E-12 TF =.94E-9 CJC=90E-12 TR =60E-9 VJC=.705
+MJC=.46
*
*$
*
*ZETEX FZT788B Spice Model v1.0 Last Revised 2/1/92
*
.MODEL FZT788B PNP IS=1.252E-12 NF=1.0119 BF=770 IKF=2.6 VAF=11
+ISE=1.3185E-13 NE=1.4832 NR=1.0047 BR=350 IKR=0.32 VAR=10.5
+ISC=5.2648E-14 NC=1.186 RB=0.053 RE=0.031 RC=0.044 CJC=137E-12
+MJC=0.34 VJC=0.275 CJE=280E-12 TF=0.75E-9 TR=2.3E-9
*
*$
*
*ZETEX FZT789A Spice Model v1.0 Last Revised 3/1/92
*
.MODEL FZT789A PNP IS=8.5083E-13 NF=1.007 BF=540 IKF=3.4 VAF=15.5
+ISE=1.60716E-13 NE=1.5059 NR=1.0025 BR=180 IKR=0.3 VAR=9 ISC=7.382E-14
+NC=1.2275 RB=0.05 RE=0.32 RC=0.052 CJC=140E-12 MJC=0.335 VJC=0.26
+CJE=300E-12 TF=0.73E-9 TR=4.2E-9
*
*$
*
*ZETEX FZT792A Spice Model v1.0 Last Revised 7/1/92
*
.MODEL FZT792A PNP IS=5.98255E-13 NF=1.0022 BF=525 IKF=1.25 VAF=30
+ISE=1.45E-13 NE=1.54 NR=0.995 BR=75 IKR=0.4 VAR=34 ISC=1.58913E-13
+NC=1.03943 RB=0.06 RE=0.059 RC=0.08 CJC=90E-12 MJC=0.5 VJC=0.71
+CJE=286E-12 TF=0.75E-9 TR=93.75E-9
*Note, The Model may be inaccurate for collector currents above 1.2A.
*
*$
*
*ZETEX MPSA20 Spice Model v1.0 Last Revised 1/4/90
*
.MODEL MPSA20 NPN IS =1.8E-14 ISE=5.0E-14 NF =.9955 NE =1.46 BF =400 BR =35.5
+IKF=.14 IKR=.03 ISC=1.72E-13 NC =1.27 NR =1.005 RB =.56 RE =.6 RC =.25 VAF=80
+VAR=12.5 CJE=13E-12 TF =.64E-9 CJC=4E-12 TR =50.72E-9 VJC=.54 MJC=.33
*
*$
*
*ZETEX MPSH10 Spice Model v1.0 Last Revised 1/11/93
*
.MODEL MPSH10  NPN IS=5.6E-16  BF=133 IKF=2.5E-2 VAF=40
+              ISE=6.367E-15 NE=1.75 NR=0.99 BR=8 IKR=1E-2 VAR=6 
+              ISC=1E-15 NC=1.167 RB=5 RE=0.65 RC=1.8
+              CJC=1.197E-12 MJC=0.2588 VJC=0.5617 CJE=1.012E-12 
+              MJE=0.4496 VJE=1.195 RBM=0.5 IRB=5E-4
+              TF=6E-11 TR=40.5E-9 ITF=2.5 XTF=1000
*
*$
*
*ZETEX ZC830A Spice Model v1.0 Last Revised 4/3/92
*
.MODEL ZC830A D IS=5.355E-15 N=1.08 RS=0.1161 XTI=3
+ EG=1.11 CJO=19.15E-12 M=0.9001 VJ=2.164 FC=0.5
+ BV=45.1 IBV=51.74E-3 TT=129.8E-9
* + ISR=1.043E-12 NR=2.01 (INCLUDE FOR LATER SPICE VERSIONS)
*
*NOTES: FOR RF OPERATION ADD PACKAGE INDUCTANCE 0F 2.5E-9H AND SET
*  RS=0.68 FOR 2V, 0.60 FOR 5V, 0.52 FOR 10V OR 0.46 FOR 20V BIAS.
*
*$
*
*ZETEX ZC831A Spice Model v1.0 Last Revised 5/3/92
*
.MODEL ZC831A D IS=4.668E-15 N=1.0630 RS=0.1917 XTI=3
+ EG=1.11 CJO=27.41E-12 M=0.9204 VJ=2.129 FC=0.5
+ BV=45.1 IBV=51.75E-3 TT=150E-9
+ ISR=1.298E-12 NR=2.048
*
*NOTES: FOR RF OPERATION ADD PACKAGE INDUCTANCE 0F 2.5E-9H AND SET
*  RS=0.60 FOR 2V, 0.53 FOR 5V, 0.45 FOR 10V OR 0.39 FOR 20V BIAS.
*
*$
*
*ZETEX ZC832A Spice Model v1.0 Last Revised 7/3/92
*
.MODEL ZC832A D IS=3.857E-15 N=1.0460 RS=0.1188 XTI=3
+ EG=1.11 CJO=39.99E-12 M=0.9734 VJ=2.268 FC=0.5
+ BV=45.1 IBV=51.74E-3 TT=177.5E-9
+ ISR=1.798E-12 NR=2.145
*
*NOTES: FOR RF OPERATION ADD PACKAGE INDUCTANCE 0F 2.5E-9H AND SET
*  RS=0.53 FOR 2V, 0.47 FOR 5V, 0.38 FOR 10V OR 0.33 FOR 20V BIAS.
*
*$
*
*ZETEX ZC833A Spice Model v1.0 Last Revised 7/3/92
*
.MODEL ZC833A D IS=3.880E-15 N=1.0380 RS=0.1100 XTI=3
+ EG=1.11 CJO=62.97E-12 M=0.9466 VJ=1.942 FC=0.5
+ BV=45.1 IBV=51.74E-3 TT=161.6E-9
+ ISR=1.671E-12 NR=2.166
*
*NOTES: FOR RF OPERATION ADD PACKAGE INDUCTANCE 0F 2.5E-9H AND SET
*  RS=0.47 FOR 2V, 0.39 FOR 5V, 0.32 FOR 10V OR 0.28 FOR 20V BIAS.
*
*$
*
*ZETEX ZC834A Spice Model v1.0 Last Revised 7/3/92
*
.MODEL ZC834A D IS=5.526E-15 N=1.0380 RS=0.1000 XTI=3
+ EG=1.11 CJO=86.90E-12 M=0.9700 VJ=2.225 FC=0.5
+ BV=45.1 IBV=51.74E-3 TT=216.4E-9
+ ISR=1.904E-12 NR=2.166
*
*NOTES: FOR RF OPERATION ADD PACKAGE INDUCTANCE 0F 2.5E-9H AND SET
*  RS=0.39 FOR 2V, 0.33 FOR 5V, 0.27 FOR 10V OR 0.22 FOR 20V BIAS.
*
*$
*
*ZETEX ZC835A Spice Model v1.0 Last Revised 7/3/92
*
.MODEL ZC835A D IS=18.16E-15 N=1.0550 RS=0.0771 XTI=3
+ EG=1.11 CJO=130.5E-12 M=0.9632 VJ=2.017 FC=0.5
+ BV=45.1 IBV=51.74E-3 TT=261.1E-9
+ ISR=2.130E-12 NR=2.166
*
*NOTES: FOR RF OPERATION ADD PACKAGE INDUCTANCE 0F 2.5E-9H AND SET
*  RS=0.32 FOR 2V, 0.26 FOR 5V, 0.20 FOR 10V OR 0.18 FOR 20V BIAS.
*
*$
*
*ZETEX ZC836A Spice Model v1.0 Last Revised 7/3/92
*
.MODEL ZC836A D IS=8.661E-15 N=1.0260 RS=0.0300 XTI=3
+ EG=1.11 CJO=184.8E-12 M=1.0130 VJ=2.297 FC=0.5
+ BV=45.1 IBV=51.74E-3 TT=313.1E-9
+ ISR=2.592E-12 NR=2.021
*
*NOTES: FOR RF OPERATION ADD PACKAGE INDUCTANCE 0F 2.5E-9H AND SET
*  RS=0.23 FOR 2V, 0.18 FOR 5V, 0.15 FOR 10V OR 0.13 FOR 20V BIAS.
*
*$
*
*ZETEX ZTX325 Spice Model v1.0 Last Revised 9/3/93
*
.MODEL ZTX325 NPN IS =4.9E-16 NF =.993 BF =93 VAF=90 IKF=.055 
+             ISE=1E-14 NE =1.800 BR =25 VAR=6 NR =1.005 IKR=.01 
+             ISC=4.5E-15 NC =1.2 RB =7 RBM=.5 IRB=5E-4 RE =.5 
+             RC =2.0 TF =5E-11 XTF=100 ITF=2.3 TR =2.4E-8 
+             CJE=1.18E-12 CJC=1.54E-12 VJC=.559 MJC=.25 VJE=1.12 
+             MJE=.4
*
* NOTE: FOR RF OPERATION ADD PACKAGE INDUCTANCE OF 2.5E-9H PER LEAD
*
*$
*
*ZETEX ZTX450 Spice Model v1.0 Last Revised 1/4/90
*
.MODEL ZTX450 NPN IS =3.941445E-14 BF =175 VAF=109.45 NF =1 IKF=.8
+ISE=7.4025E-15 NE =1.3 BR =20.5 VAR=14.25 NR =.974 IKR=.1 ISC=3.157E-13
+NC =1.2 RB =1.1 RE =.1259 RC =.0539 CJE=63E-12 TF =.75E-9 CJC=15.8E-12
+TR =85E-9 VJC=.505 MJC=.39
*
*$
*
*ZETEX ZTX549 Spice Model v1.0 Last Revised 11/10/94
*
.MODEL ZTX549 PNP IS =1.3E-13 BF =200 IKF=1.8 VAF=104
+              ISE=6E-14 NE =1.45 BR =50 IKR=0.2 VAR=8 
+              ISC=3.5E-14 NC =1.23 RB =0.7 RE =0.063 RC =0.122 
+              CJC=55E-12 MJC=0.3541 VJC=0.1928 CJE=120.9E-12 
+              MJE=.4685 VJE=1.041 TF =0.51E-9 TR =3.6E-9
*
*$
*
*ZETEX ZTX550 Spice Model v1.0 Last Revised 24/7/01
*
.MODEL ZTX550 PNP IS =3.2E-14 BF =170 VAF=45 NF =0.977 IKF=1.25 ISE=7E-15
+NE =1.35 BR =50 VAR=50 NR =.986 IKR=0.15 ISC=0.9E-14 NC =1.08 RB =0.16
+RE =0.195 RC =0.185 CJE=104E-12 TF =0.7E-9 CJC=30.5E-12 TR =3E-9 VJC=0.395
+MJC=0.415
*
*$
*
*ZETEX ZTX601B Spice Model v1.0 Last Revised 9/5/94
*
.SUBCKT ZTX601B 1 2 3
*               C B E
Q1 1 2 4 SUB601B
Q2 1 4 3 SUB601B 2.74
*
.MODEL SUB601B NPN IS=8.354E-14 BF=130 VAF=18.3 IKF=0.2 ISE=2E-13
+NE=1.45 BR=2 VAR=6.5 NR=1 IKR=0.2 ISC=6.138E-13 NC=1.46 RB=0.5 RE=0.25
+RC=0.3 CJE=83.7E-12 VJE=0.6868 MJE=0.3362 CJC=8.6E-12 VJC=0.3679 MJC=0.3607 
+TF=1E-9 TR=1800E-9
.ENDS ZTX601B
*
*$
*
*ZETEX ZTX605 Spice Model v1.0 Last Revised 24/6/93
*
.SUBCKT ZTX605 1 2 3
*              C B E
Q1 1 2 4 SUB605
Q2 1 4 3 SUB605 3.46
*
.MODEL SUB605 NPN IS=4.8E-14 BF=170 VAF=542 NF=1.0039 IKF=0.2 ISE=1.5E-14
+NE=1.55 BR=12 VAR=20 NR=1.007 IKR=0.35 ISC=7.486E-14 NC=1.0984 RB=0.17 RE=0.3
+RC=0.14 CJE=81E-12 CJC=10.8E-12 VJC=0.58 MJC=0.41 TF=1.024E-9 TR=700E-9
.ENDS ZTX605
*
*$
*
*ZETEX ZTX614 Spice Model v1.0 Last Revised 17/12/92
*
.SUBCKT ZTX614 1 2 3
*              C B E
Q1 1 2 4 SUB614
Q2 1 4 3 SUB614 5.39
.ENDS ZTX614
*
.MODEL SUB614 NPN IS =1.575E-14 NF =1.00 BF =280 IKF=0.08 VAF=284 
+             ISE=5.8853E-15 NE =1.3517 NR =1.0469 BR =11 IKR=0.2 
+             VAR=13 ISC=5.3795E-14 NC =1.257 RB =0.22 RE =0.375 
+             RC =0.40 CJC=3.6E-12 MJC=0.3393 VJC=0.4127 
+             CJE=23.7E-12 TF =1.73E-9 TR =260E-9
*
*$
*
*ZETEX ZTX618 Spice Model v1.0 Last Revised 8/7/93
*
.MODEL ZTX618  NPN IS =5.611E-13 NF =1.0022 BF =480 IKF=4.6 VAF=51
+               ISE=1.73E-13 NE =1.4 NR =1.0002 BR =200 IKR=3 VAR=25 
+               ISC=7.3152E-13 NC =1.47 RB =0.032 RE =0.027 RC =0.025 
+               CJC=59E-12 MJC=0.2651 VJC=0.3051 CJE=216E-12 
+               TF =0.95E-9 TR =2.25E-9
*
*$
*
*ZETEX ZTX649 Spice Model v1.0 Last Revised 17/7/90
*
.MODEL ZTX649 NPN IS =3E-13 BF =225 VAF=80 IKF=2.8 ISE=1.1E-13 NE =1.37
+BR =110 VAR=28 NR =.972 IKR=0.8 ISC=6.5E-13 NC =1.372 RB =0.3 RE =.063
+RC =.07 CJE=325E-12 TF =1E-9 CJC=70E-12 TR =10E-9
*
*$
*
*ZETEX ZTX651 Spice Model v1.0 Last Revised 16/1/91
*
.MODEL ZTX651 NPN IS =2.218E-13 NF =.9956 BF =230 IKF=2 VAF=100 ISE=2.9E-14
+NE =1.35 NR =.995 BR =56 IKR=1 VAR=30 ISC=2.971E-13 NC =1.321 RB =.04
+RE =.075 RC =.069 CJC=51E-12 MJC=.42 VJC=.595 CJE=318E-12 TF =.77E-9
+TR =27E-9
*
*$
*
*ZETEX ZTX653 Spice Model v1.0 Last Revised 18/5/93
*
.MODEL ZTX653 NPN IS =3.8206E-13 NF =1.0025 BF =250 IKF=1.15 VAF=154
+             ISE=1.035E-13 NE =1.3642 NR =1.0012 BR =50 IKR=0.42 VAR=38 
+             ISC=7E-13 NC =1.19 RB =0.04 RE =0.0875 RC =0.06 
+             CJC=45.5E-12 MJC=0.4534 VJC=0.5774 CJE=278E-12 
+             TF =0.78E-9 TR =30E-9
*
*$
*
*ZETEX ZTX688B  Spice Model v1.0 Last Revised 8/11/90
*
.MODEL ZTX688B NPN IS =1.09E-12 NF =0.9935 BF =1180 IKF=5.2 VAF=25
+ISE=1.3E-13 NE =1.35 NR =0.992 BR =790 IKR=.5 VAR=5 ISC=0.174E-12
+NC =1.399 RB =.3 RE =.036 RC =.034 CJC=104E-12 MJC=.29 VJC=.46
+CJE=280E-12 TF =.93E-9 TR =1.05E-9
*
*$
*
*ZETEX ZTX690B Spice Model v1.0 Last Revised 18/11/90
*
.MODEL ZTX690B NPN IS =2.505E-12 NF =1.0058 BF =1360 IKF=1.3 VAF=35
+ISE=.24E-12 NE =1.38 NR =1.001 BR =125 IKR=1 VAR=8 ISC=.435E-12
+NC =1.213 RB =.2 RE =.043 RC =.04 CJC=54.3E-12 MJC=.475 VJC=.765
+CJE=247E-12 TF =.851E-9 TR =15.7E-9
*Note: This Model may be inaccurate for collector currents above 2A.
*
*$
*
*ZETEX ZTX692B Spice Model v1.0 Last Revised  31/10/90
*
.MODEL ZTX692B NPN IS =1.87E-12 NF =.9983 BF =1400 IKF=0.73 VAF=29
+ISE=.21E-12 NE =1.378 NR =.997 BR =68 IKR=.55 VAR=12 ISC=.44E-12
+NC =1.14 RB =.2 RE =.05 RC =.048 CJC=42.5E-12 MJC=.475 VJC=.625
+CJE=233E-12 TF =.77E-9 TR =39E-9
*Note: This Model may be inaccurate for collector currents above 1.5A.
*
*$
*
*ZETEX ZTX694B Spice Model v1.0 Last Revised  1/11/90
*
.MODEL ZTX694B NPN IS =1.59E-12 NF =1.001 BF =1009 IKF=0.26 VAF=45
+ISE=.253E-12 NE =1.445 NR =1 BR =40 IKR=1 VAR=30 ISC=0.326E-12
+NC =1.075 RB =0.2 RE =0.065 RC =0.075 CJC=35.5E-12 MJC=.465
+VJC=.515 CJE=258E-12 TF =.763E-9 TR =130E-9
*Note: This Model may be inaccurate for collector currents above 0.6A.
*
*$
*
*ZETEX ZTX705 Spice Model v1.0 Last Revised 9/8/90
*
.SUBCKT ZTX705 1 2 3
*              C B E
Q1 1 2 4 SUB704
Q2 1 4 3 SUB704 4
*
.MODEL SUB704 PNP IS =3.35584E-14 BF =85 VAF=212 NF =1.002 IKF=.817
+ISE=3.6E-13 NE =4.1 BR =24 VAR=6 NR =.999 IKR=.114 ISC=1.406E-13 NC =1.13
+RB =1.1 RE =.4 RC =.0339 CJE=100E-12 CJC=37E-12 VJC=1.045 MJC=.595
.ENDS ZTX705
*
*$
*
*ZETEX ZTX718  Spice Model v1.0 Last Revised 15/12/93
*
.MODEL ZTX718 PNP IS =6.8E-13  BF =480 IKF =2 VAF =23 
+              ISE=0.8E-13 NE =1.5567 NR =1.00 BR =70 IKR=0.4 
+              VAR=7 ISC=7.5E-14 NC =1.19 RB =0.085 RE =0.04
+              RC =0.045 CJC=70.02E-12 MJC=0.4685 VJC=0.7714 
+              CJE=203.6E-12 MJE=0.5029 VJE=0.9403 TF =0.71E-9 
+              TR =23.7E-9
*
*$
*
*ZETEX ZTX749 Spice Model v1.0 Last Revised 17/7/90
*
.MODEL ZTX749 PNP IS =2.6E-13 BF =210 VAF=27 IKF=7 ISE=1.2E-13 NE =1.43 BR =70
+VAR=14 IKR=.6 ISC=12.04E-13 NC =1.4474 NF =.999 NR =.982 RB =.3 RE =.065
+RC =.04 CJE=410E-12 TF =.65E-9 CJC=140E-12 TR =12E-9 MJC=.35 VJC=.305
*
*$
*
*ZETEX ZTX751 Spice Model v1.0 Last Revised 23/1/91
*
.MODEL ZTX751 PNP IS =2.715E-13 BF =170 VAF=70 NF =1.004 IKF=2.75 ISE=1E-13
+NE =1.535 BR =23 VAR=40 NR =1.005 IKR=.55 ISC=5.15E-14 NC =1.13 RB =.07
+RE =.065 RC =.085 CJE=360E-12 TF =.94E-9 CJC=90E-12 TR =60E-9 VJC=.705
+MJC=.46
*
*$
*
*ZETEX ZTX753 Spice Model v1.0 Last Revised 24/5/93
*
.MODEL ZTX753 PNP IS =3.2007E-13 NF =1.0041 BF =200 IKF=1.6 VAF=76
+             ISE=8E-14 NE =1.57 NR =1.0008 BR =33 IKR=0.45 VAR=51 
+             ISC=6E-14 NC =1.079 RB =0.087 RE =0.08 RC =0.07 
+             CJC=80E-12 MJC=0.4896 VJC=0.7676 CJE=350E-12 
+             TF =0.86E-9 TR =24E-9
*
*$
*
*ZETEX ZTX788A Spice Model v1.0 Last Revised 3/6/92
*
.MODEL ZTX788A PNP IS=1.2016E-12 NF=1.0186 BF=490 IKF=3.8 VAF=10.8
+ISE=2.2E-13 NE=1.57 NR=1.011 BR=190 IKR=0.35 VAR=13.6 
+ISC=2.38E-12 NC=1.693 RB=0.050 RE=0.028 RC=0.042 CJC=156E-12  
+MJC=0.4266 VJC=0.9718 CJE=335E-12 TF=0.78E-9 TR=4.6E-9
*
*$
*
*ZETEX ZTX788B Spice Model v1.0 Last Revised 2/1/92
*
.MODEL ZTX788B PNP IS=1.252E-12 NF=1.0119 BF=770 IKF=2.6 VAF=11
+ISE=1.3185E-13 NE=1.4832 NR=1.0047 BR=350 IKR=0.32 VAR=10.5
+ISC=5.2648E-14 NC=1.186 RB=0.053 RE=0.031 RC=0.044 CJC=137E-12
+MJC=0.34 VJC=0.275 CJE=280E-12 TF=0.75E-9 TR=2.3E-9
*
*$
*
*ZETEX ZTX789A Spice Model v1.0 Last Revised 3/1/92
*
.MODEL ZTX789A PNP IS=8.5083E-13 NF=1.007 BF=540 IKF=3.4 VAF=15.5
+ISE=1.60716E-13 NE=1.5059 NR=1.0025 BR=180 IKR=0.3 VAR=9 ISC=7.382E-14
+NC=1.2275 RB=0.05 RE=0.32 RC=0.052 CJC=140E-12 MJC=0.335 VJC=0.26
+CJE=300E-12 TF=0.73E-9 TR=4.2E-9
*
*$
*
*ZETEX ZTX792A Spice Model v1.0 Last Revised 7/1/92
*
.MODEL ZTX792A PNP IS=5.98255E-13 NF=1.0022 BF=525 IKF=1.25 VAF=30
+ISE=1.45E-13 NE=1.54 NR=0.995 BR=75 IKR=0.4 VAR=34 ISC=1.58913E-13
+NC=1.03943 RB=0.06 RE=0.059 RC=0.08 CJC=90E-12 MJC=0.5 VJC=0.71
+CJE=286E-12 TF=0.75E-9 TR=93.75E-9
*Note, The Model may be inaccurate for collector currents above 1.2A.
*
*$
*
*ZETEX ZTX849 Spice Model v1.0  Last Revised 20/1/93
*
.MODEL ZTX849 NPN IS =5.8591E-13 NF =0.9919 BF =230 IKF=18 VAF=90
+             ISE=2.0067E-13 NE =1.4 NR =0.9908 BR =180 IKR=6.8 
+             VAR=20 ISC=5.3E-13 NC =1.46 RB =0.023 RE =0.0223 
+             RC =0.015 CJC=200E-12 MJC=0.3006 VJC=0.3532 
+             CJE=1.21E-9 TF =1.07E-9 TR =9.3E-9
*
*$
*
*ZETEX ZTX851 Spice Model v1.0 Last Revised 21/1/93
*
.MODEL ZTX851 NPN IS =1.0085E-12 NF =1.0001 BF =240 IKF=5.1 VAF=158
+             ISE=2E-13 NE =1.38 NR =0.9988 BR =110 IKR=5.5 VAR=46 
+             ISC=4.6515E-13 NC =1.334 RB =0.025 RE =0.018 RC =0.015 
+             CJC=155E-12 MJC=0.4348 VJC=0.6477 CJE=1.05E-9 
+             TF =0.79E-9 TR =24E-9
*
*$
*
*ZETEX ZTX948 Spice Model v1.0 Last Revised 26/5/92
*
.MODEL ZTX948  PNP IS=1.5554E-12 NF=1.013 BF=208 IKF=14.7 VAF=22.4
+ISE=1.48E-13 NE=1.485 NR=1.004 BR=140 IKR=1.34 VAR=15.4 
+ISC=1.3946E-11 NC=1.702 RB=0.020 RE=0.0177 RC=0.015 CJC=440E-12  
+MJC=0.3604 VJC=0.685 CJE=1.23E-9 TF=1.38E-9 TR=4.8E-9
*
*$
*
*ZETEX ZTX949 Spice Model v1.0 Last Revised 27/5/92
*
.MODEL ZTX949  PNP IS=1.5111E-12 NF=1.0127 BF=208 IKF=12.4 VAF=32.7
+ISE=1.335E-13 NE=1.42 NR=1.009 BR=145 IKR=1.25 VAR=26.5 
+ISC=1.392E-13 NC=1.14 RB=0.026 RE=0.019 RC=0.0175 CJC=362E-12  
+MJC=0.338 VJC=0.4294 CJE=1.17E-9 TF=1.01E-9 TR=7.5E-9
*
*$
*
*ZETEX ZTX951 Spice Model v1.0 Last Revised 27/5/92
*
.MODEL ZTX951  PNP IS=1.3766E-12 NF=1.013 BF=187 IKF=5.0 VAF=66.3
+ISE=1.4E-13 NE=1.41 NR=1.0099 BR=56 IKR=0.9 VAR=33 ISC=1.7E-12
+NC=1.4 RB=0.029 RE=0.020 RC=0.0255 CJC=287E-12 MJC=0.4522 
+VJC=0.4956 CJE=1.15E-9 TF=0.83E-9 TR=20E-9
*
*$
*
*ZETEX ZTX968 Spice Model v1.0 Last Revised 25/5/92
*
.MODEL ZTX968  PNP IS=3.58E-12 NF=1.015 BF=500 IKF=11 VAF=11.4
+ISE=1.576E-13 NE=1.42 NR=1.01 BR=245 IKR=1.4 VAR=8.4 ISC=1.48E-11
+NC=1.637 RB=0.024 RE=0.0164 RC=0.0235 CJC=438E-12 MJC=0.361 
+VJC=0.673 CJE=1.05E-9 TF=1.38E-9 TR=2.3E-9
*
*$
*
*ZETEX ZTX1047A Spice Model v1.0 Last Revised 20/01/95
*
.MODEL ZTX1047A  NPN IS=9.73E-13  NF=1.0  BF=550  IKF=8.0  VAF=120
+               ISE=2.6E-13  NE=1.38  NR=1.0  BR=400  IKR=5  VAR=15
+               ISC=8E-13  NC=1.4  RB=0.1  RE=0.017  RC=0.010 
+               CJC=195.4E-12  CJE=540.4E-12  MJC=0.257  MJE=0.359
+               VJC=0.390  VJE=0.753  TF=450E-12  TR=1.2E-9 
*
*$
*
*ZETEX ZTX1048A Spice Model v1.0 Last Revised 20/01/95
*
.MODEL ZTX1048A NPN IS=13.73E-13  NF=1.0  BF=550  IKF=8.0  VAF=120 
+               ISE=2.6E-13  NE=1.38  NR=1.0  BR=300  IKR=6  VAR=15
+               ISC=1.6E-12  NC=1.4  RB=0.1  RE=0.022  RC=0.010 
+               CJC=136E-12  CJE=559.1E-12  MJC=0.267  MJE=0.299 
+               VJC=0.420  VJE=0.533  TF=600E-12  TR=3E-9  
*
*$
*
*ZETEX ZTX1049A Spice Model v1.0 Last Revised 15/6/95
*
.MODEL     ZTX1049A  NPN IS=1.5E-12  NF=1.0  BF=600  IKF=7.5  VAF=100 
+               ISE=0.9E-13  NE=1.25  NR=1.0  BR=150  IKR=3  VAR=15
+               ISC=5.0E-13  NC=1.76  RB=0.1  RE=0.018  RC=0.007 
+               CJC=136E-12  CJE=550E-12  MJC=0.352  MJE=0.36
+               VJC=0.554   VJE=0.726  TF=400E-12  TR=6.9E-9
*
*$
*
*ZETEX ZTX1051A Spice Model v1.0 Last Revised 16/12/94
*
.MODEL ZTX1051A  NPN IS=1.35E-12  NF=1.0  BF=600  IKF=5.0  VAF=120
+               ISE=0.6E-13  NE=1.25  NR=1.0  BR=150  IKR=3  VAR=15
+               ISC=1.0E-10  NC=1.7  RB=0.1  RE=0.023  RC=0.010 
+               CJC=90.36E-12  CJE=547.5E-12  MJC=0.385  MJE=0.357
+               VJC=0.5 VJE=0.741  TF=600E-12  TR=8E-9
*
*$
*
*ZETEX ZTX1053A Spice Model v1.0 Last Revised 19/01/95
*
.MODEL ZTX1053A  NPN IS=2.1E-12  NF=1.0  BF=600  IKF=2.2  VAF=100
+               ISE=0.9E-13  NE=1.25  NR=0.99  BR=150  IKR=2.5  VAR=15
+               ISC=5.0E-10  NC=1.76  RB=0.1  RE=0.028  RC=0.016 
+               CJC=75.1E-12  CJE=520E-12  MJC=0.415  MJE=0.367
+               VJC=0.512  VJE=0.766  TF=550E-12  TR=22E-9
*
*$
*
*ZETEX FZT1047A Spice Model v1.0 Last Revised 18/3/97
*
.MODEL FZT1047A  NPN IS=9.73E-13  NF=1.0  BF=550  IKF=8.0  VAF=120
+               ISE=2.6E-13  NE=1.38  NR=1.0  BR=400  IKR=5  VAR=15
+               ISC=8E-13  NC=1.4  RB=0.1  RE=0.017  RC=0.010 
+               CJC=195.4E-12  CJE=540.4E-12  MJC=0.257  MJE=0.359
+               VJC=0.390  VJE=0.753  TF=450E-12  TR=1.2E-9 
*
*$
*
*ZETEX FZT1048A Spice Model v1.0 Last Revised 14/3/97
*
.MODEL FZT1048A NPN IS=13.73E-13  NF=1.0  BF=550  IKF=8.0  VAF=120 
+               ISE=2.6E-13  NE=1.38  NR=1.0  BR=300  IKR=6  VAR=15
+               ISC=1.6E-12  NC=1.4  RB=0.1  RE=0.022  RC=0.010 
+               CJC=136E-12  CJE=559.1E-12  MJC=0.267  MJE=0.299 
+               VJC=0.420  VJE=0.533  TF=600E-12  TR=3E-9  
*
*$
*
*ZETEX FZT1049A Spice Model v1.0 Last Revised 18/3/97
*
.MODEL     FZT1049A  NPN IS=1.5E-12  NF=1.0  BF=600  IKF=7.5  VAF=100 