Version 4
SHEET 1 3228 1244
WIRE 1184 16 1184 -32
WIRE 1184 144 1184 96
WIRE 1184 288 1184 240
WIRE 1184 416 1184 368
WIRE 1184 560 1184 512
WIRE 1184 688 1184 640
WIRE 1248 -32 1184 -32
WIRE 1248 240 1184 240
WIRE 1248 512 1184 512
WIRE 1296 -32 1248 -32
WIRE 1296 240 1248 240
WIRE 1296 512 1248 512
WIRE 1360 -64 1360 -112
WIRE 1360 64 1360 16
WIRE 1360 208 1360 160
WIRE 1360 336 1360 288
WIRE 1360 480 1360 432
WIRE 1360 608 1360 560
WIRE 1424 -112 1360 -112
WIRE 1424 160 1360 160
WIRE 1424 432 1360 432
WIRE 1472 -112 1424 -112
WIRE 1472 160 1424 160
WIRE 1472 432 1424 432
WIRE 1520 16 1520 -32
WIRE 1520 144 1520 96
WIRE 1584 -32 1520 -32
WIRE 1632 -32 1584 -32
WIRE 1776 32 1776 -16
WIRE 1776 160 1776 112
WIRE 1840 -16 1776 -16
WIRE 1888 -16 1840 -16
WIRE 1952 -48 1952 -96
WIRE 1952 80 1952 32
WIRE 2016 -96 1952 -96
WIRE 2064 -96 2016 -96
FLAG 1184 688 0
FLAG 1248 512 phi1
FLAG 1360 608 0
FLAG 1424 432 phi1b
FLAG 1184 416 0
FLAG 1248 240 phi2
FLAG 1360 336 0
FLAG 1424 160 phi2b
FLAG 2128 528 0
FLAG 1184 144 0
FLAG 1248 -32 VDD
FLAG 2128 272 VDD
FLAG 2288 400 VCMFB
FLAG 1920 528 phi1
FLAG 1968 528 phi1b
FLAG 2016 528 phi2
FLAG 2064 528 phi2b
FLAG 1360 64 0
FLAG 1424 -112 VCM
FLAG 1808 432 VCM
FLAG 1520 144 0
FLAG 1584 -32 VCMI
FLAG 1808 368 VCMI
FLAG 1776 160 0
FLAG 1840 -16 vop
FLAG 1952 80 0
FLAG 2016 -96 vom
FLAG 1936 272 vop
FLAG 2000 272 vom
SYMBOL voltage 1184 544 R0
SYMATTR InstName Vphi1
SYMATTR Value Pulse 0 	1   0    200p  200p  4n 10n
SYMBOL voltage 1360 464 R0
SYMATTR InstName Vphi1b
SYMATTR Value Pulse 1 0   0    200p  200p  4n 10n
SYMBOL voltage 1184 272 R0
SYMATTR InstName Vphi2
SYMATTR Value Pulse 0 	1   5n    200p  200p  4n 10n
SYMBOL voltage 1360 192 R0
SYMATTR InstName Vphi2b
SYMATTR Value Pulse 1 0 5n  200p  200p  4n 10n
SYMBOL Fig_26_50 1856 480 R0
SYMATTR InstName X1
SYMBOL voltage 1184 0 R0
WINDOW 3 34 86 Left 0
WINDOW 123 0 0 Left 0
WINDOW 39 0 0 Left 0
SYMATTR Value 1
SYMATTR InstName VDD
SYMBOL voltage 1360 -80 R0
WINDOW 3 34 86 Left 0
WINDOW 123 0 0 Left 0
WINDOW 39 0 0 Left 0
SYMATTR Value 500m
SYMATTR InstName VCM
SYMBOL voltage 1520 0 R0
WINDOW 3 34 86 Left 0
WINDOW 123 0 0 Left 0
WINDOW 39 0 0 Left 0
SYMATTR Value 400m
SYMATTR InstName Vcmi
SYMBOL voltage 1776 16 R0
SYMATTR InstName Vop
SYMATTR Value Pulse 500m 700m 150n 100p 100p
SYMBOL voltage 1952 -64 R0
SYMATTR InstName Vom
SYMATTR Value Pulse 500m 700m 150n 100p 100p
TEXT 1256 720 Left 0 !.tran 0 200n 0 100p uic
TEXT 1552 696 Left 0 !.lib cmosedu_models.txt
TEXT 1656 -120 Left 0 ;Plot VCMFB
