Version 4
SHEET 1 2004 1316
WIRE -224 176 -224 128
WIRE -224 320 -224 256
WIRE -192 128 -224 128
WIRE -48 192 -48 128
WIRE -48 320 -48 272
WIRE 16 128 -48 128
WIRE 224 -64 176 -64
WIRE 352 -64 304 -64
WIRE 352 96 352 -64
WIRE 352 128 320 128
WIRE 352 192 352 128
WIRE 352 304 352 272
WIRE 416 96 352 96
WIRE 416 128 352 128
WIRE 432 -64 352 -64
WIRE 448 80 448 48
WIRE 448 176 448 144
WIRE 576 -64 512 -64
WIRE 576 112 480 112
WIRE 576 112 576 -64
WIRE 640 112 576 112
FLAG -224 320 0
FLAG -192 128 VCC
IOPIN -192 128 Out
FLAG -48 320 0
FLAG 16 128 VSS
IOPIN 16 128 Out
FLAG 176 -64 0
FLAG 448 48 VCC
FLAG 448 176 VSS
FLAG 352 304 0
FLAG 640 112 out
IOPIN 640 112 Out
FLAG 320 128 in
IOPIN 320 128 In
SYMBOL voltage -224 160 R0
WINDOW 3 19 109 Left 0
WINDOW 123 0 0 Left 0
WINDOW 39 18 144 Left 0
SYMATTR Value 5
SYMATTR SpiceLine Rser=0.02
SYMATTR InstName V1
SYMBOL voltage -48 176 R0
WINDOW 123 0 0 Left 0
WINDOW 39 24 132 Left 0
SYMATTR SpiceLine Rser=0.02
SYMATTR InstName V3
SYMATTR Value -5
SYMBOL res 208 -48 R270
WINDOW 0 32 56 VTop 0
WINDOW 3 0 56 VBottom 0
SYMATTR InstName R1
SYMATTR Value 5k
SYMBOL res 416 -48 R270
WINDOW 0 32 56 VTop 0
WINDOW 3 0 56 VBottom 0
SYMATTR InstName R2
SYMATTR Value 50k
SYMBOL voltage 352 176 R0
WINDOW 123 0 0 Left 0
WINDOW 39 24 132 Left 0
SYMATTR SpiceLine Rser=50
SYMATTR InstName V2
SYMATTR Value PULSE(-1 1 0 10n 10n 100u 200u)
SYMBOL Robertugo\\OPAMP5 448 48 R0
SYMATTR InstName U1
SYMATTR SpiceModel HA5104
TEXT -202 -54 Left 0 !.tran 0 1m 0 1u
TEXT -208 -8 Left 0 ;.step temp list -20 25 85
