Version 4
SHEET 1 1752 2296
WIRE 288 192 240 192
WIRE 416 192 368 192
WIRE 512 192 416 192
WIRE 624 192 592 192
WIRE 240 208 240 192
WIRE 416 256 416 192
WIRE 464 256 416 256
WIRE 624 272 624 192
WIRE 624 272 528 272
WIRE 656 272 624 272
WIRE 240 288 112 288
WIRE 336 288 320 288
WIRE 416 288 400 288
WIRE 464 288 416 288
WIRE 624 320 624 272
WIRE 416 336 416 288
WIRE 112 352 112 288
WIRE 624 432 624 400
WIRE 416 448 416 416
WIRE 256 528 256 496
WIRE 368 528 256 528
WIRE 480 528 368 528
WIRE 592 528 592 496
WIRE 688 528 592 528
WIRE 800 528 688 528
WIRE 256 560 256 528
WIRE 592 560 592 528
WIRE 368 576 368 528
WIRE 480 576 480 528
WIRE 688 576 688 528
WIRE 800 576 800 528
WIRE 112 672 112 432
WIRE 256 672 256 640
WIRE 368 672 368 640
WIRE 480 672 480 640
WIRE 592 672 592 640
WIRE 688 672 688 640
WIRE 800 672 800 640
FLAG 112 672 0
FLAG 416 448 0
FLAG 496 304 V-
FLAG 496 240 V+
FLAG 240 208 0
FLAG 624 432 0
FLAG 592 672 0
FLAG 256 496 V-
FLAG 256 672 0
FLAG 592 496 V+
FLAG 688 672 0
FLAG 800 672 0
FLAG 368 672 0
FLAG 480 672 0
FLAG 656 272 out
IOPIN 656 272 Out
SYMBOL voltage 112 336 R0
WINDOW 123 8 6 Left 0
WINDOW 39 0 0 Left 0
WINDOW 0 -13 57 Left 0
WINDOW 3 87 -6 VRight 0
SYMATTR Value2 AC 2
SYMATTR InstName V1
SYMATTR Value PULSE(-0.2 0.2 0 1n 1n 4n 10n)
SYMBOL cap 400 272 R90
WINDOW 0 16 55 VBottom 0
WINDOW 3 -11 3 VTop 0
SYMATTR InstName C1
SYMATTR Value 10µ
SYMBOL RES 432 320 M0
SYMATTR InstName R1
SYMATTR Value 75
SYMBOL res 496 208 R270
WINDOW 0 32 56 VTop 0
WINDOW 3 0 56 VBottom 0
SYMATTR InstName R2
SYMATTR Value 470
SYMBOL res 272 208 R270
WINDOW 0 32 56 VTop 0
WINDOW 3 0 56 VBottom 0
SYMATTR InstName R3
SYMATTR Value 130
SYMBOL res 608 304 R0
WINDOW 0 -30 24 Left 0
WINDOW 3 -26 63 Left 0
SYMATTR InstName R4
SYMATTR Value 75
SYMBOL VOLTAGE 592 544 R0
WINDOW 123 0 0 Left 0
WINDOW 39 0 0 Left 0
SYMATTR InstName V2
SYMATTR Value 5
SYMBOL VOLTAGE 256 544 R0
WINDOW 39 0 0 Left 0
WINDOW 123 0 0 Left 0
SYMATTR InstName V3
SYMATTR Value -5
SYMBOL cap 672 576 R0
SYMATTR InstName C2
SYMATTR Value 220µ
SYMBOL cap 784 576 R0
SYMATTR InstName C3
SYMATTR Value .1µ
SYMBOL cap 352 576 R0
SYMATTR InstName C4
SYMATTR Value 220µ
SYMBOL cap 464 576 R0
SYMATTR InstName C5
SYMATTR Value .1µ
SYMBOL res 224 304 R270
WINDOW 0 32 56 VTop 0
WINDOW 3 0 56 VBottom 0
SYMATTR InstName R5
SYMATTR Value 75
SYMBOL Robertugo\\OPAMP5 496 208 R0
SYMATTR InstName U1
SYMATTR SpiceModel HFA1100
TEXT 864 552 Left 0 !.ac oct 10 1e2 1e9
TEXT 864 592 Left 0 !.op
TEXT 864 640 Left 0 ;.tran 100n
TEXT 864 672 Left 0 !.options plotwinsize=0
TEXT 656 184 Left 0 ;The POLY-syntax used in the original HFA1100 \nmodel was diffferent from the LTspice syntax.\nIt has to be changed!\n \nExample:\n \nECC 105 0 POLY 1  109 0 -1.70000000E+00  1.0  \n \nChange to:\n \nECC 105 0 POLY (1)  (109,0) -1.70000000E+00  1.0
