Version 4
SHEET 1 3512 680
WIRE 2464 -1040 2144 -1040
WIRE 2144 -1008 2144 -1040
WIRE 3120 -912 2944 -912
WIRE 3440 -912 3120 -912
WIRE 2144 -896 2144 -928
WIRE 2944 -880 2944 -912
WIRE 3120 -880 3120 -912
WIRE 2464 -864 2464 -1040
WIRE 576 -832 256 -832
WIRE 1264 -832 1088 -832
WIRE 1584 -832 1264 -832
WIRE 2096 -816 1936 -816
WIRE 256 -800 256 -832
WIRE 1088 -800 1088 -832
WIRE 1264 -800 1264 -832
WIRE 1936 -784 1936 -816
WIRE 3120 -784 3120 -800
WIRE 3120 -784 3040 -784
WIRE 2144 -768 2144 -800
WIRE 2464 -768 2464 -784
WIRE 2944 -768 2944 -800
WIRE 3120 -768 3120 -784
WIRE -784 -736 -1056 -736
WIRE 3440 -736 3440 -912
WIRE -784 -704 -784 -736
WIRE 1264 -704 1264 -720
WIRE 1264 -704 1184 -704
WIRE -1056 -688 -1056 -736
WIRE 256 -688 256 -720
WIRE 1088 -688 1088 -720
WIRE 1264 -688 1264 -704
WIRE 1936 -688 1936 -704
WIRE 3040 -688 3040 -784
WIRE 3040 -688 2992 -688
WIRE 3072 -688 3040 -688
WIRE 576 -656 576 -832
WIRE 1584 -656 1584 -832
WIRE 2944 -640 2944 -672
WIRE 3120 -640 3120 -672
WIRE 3440 -640 3440 -656
WIRE -784 -608 -784 -624
WIRE 208 -608 48 -608
WIRE 1184 -608 1184 -704
WIRE 1184 -608 1136 -608
WIRE 1216 -608 1184 -608
WIRE -1120 -592 -1120 -640
WIRE -1072 -592 -1072 -608
WIRE -1072 -592 -1120 -592
WIRE -992 -592 -992 -640
WIRE -992 -592 -1072 -592
WIRE 48 -576 48 -608
WIRE -1072 -560 -1072 -592
WIRE 256 -560 256 -592
WIRE 576 -560 576 -576
WIRE 1088 -560 1088 -592
WIRE 1264 -560 1264 -592
WIRE 1584 -560 1584 -576
WIRE 48 -480 48 -496
WIRE -1040 -464 -1040 -608
WIRE -1072 -352 -1072 -480
WIRE -1040 -352 -1040 -384
WIRE -1056 -192 -1088 -192
WIRE -768 -192 -1056 -192
WIRE -768 -160 -768 -192
WIRE -1056 -144 -1056 -192
WIRE -768 -64 -768 -80
WIRE -1088 -48 -1088 -192
WIRE 336 -32 272 -32
WIRE 464 -32 416 -32
WIRE -416 -16 -480 -16
WIRE -288 -16 -336 -16
WIRE 928 -16 864 -16
WIRE 1056 -16 1008 -16
WIRE 1568 -16 1504 -16
WIRE 1696 -16 1648 -16
WIRE 272 16 272 -32
WIRE -1088 64 -1088 32
WIRE -1056 64 -1056 -64
WIRE -1136 96 -1296 96
WIRE -880 96 -1008 96
WIRE 464 112 464 -32
WIRE -288 128 -288 -16
WIRE 272 128 272 80
WIRE 1056 128 1056 -16
WIRE 1696 128 1696 -16
WIRE -480 144 -480 -16
WIRE 864 144 864 -16
WIRE 1504 144 1504 -16
WIRE -1072 176 -1072 144
WIRE -1296 192 -1296 176
WIRE -880 192 -880 176
WIRE 272 208 272 192
WIRE 464 208 464 192
WIRE -480 224 -480 208
WIRE -288 224 -288 208
WIRE 864 224 864 208
WIRE 1056 224 1056 208
WIRE 1504 224 1504 208
WIRE 1696 224 1696 208
FLAG 272 208 0
FLAG 464 208 0
FLAG 1056 224 0
FLAG 864 224 0
FLAG 1696 224 0
FLAG 1504 224 0
FLAG -288 224 0
FLAG -480 224 0
FLAG -1072 176 0
FLAG -880 192 0
FLAG -1296 192 0
FLAG -768 -64 0
FLAG -1040 -352 0
FLAG -1072 -352 0
FLAG -784 -608 0
FLAG 48 -480 0
FLAG 256 -560 0
FLAG 576 -560 0
FLAG 1264 -560 0
FLAG 1584 -560 0
FLAG 1088 -560 0
FLAG 1936 -688 0
FLAG 2144 -768 0
FLAG 2464 -768 0
FLAG 3120 -640 0
FLAG 3440 -640 0
FLAG 2944 -640 0
SYMBOL Contrib\\Toshiba\\DIODE\\1SS294 256 128 R0
SYMATTR InstName U1
SYMBOL voltage 464 96 R0
WINDOW 123 0 0 Left 0
WINDOW 39 0 0 Left 0
SYMATTR InstName V1
SYMATTR Value PWL(0 0 1 5)
SYMBOL res 432 -48 R90
WINDOW 0 0 56 VBottom 2
WINDOW 3 32 56 VTop 2
SYMATTR InstName R1
SYMATTR Value 1k
SYMBOL Contrib\\Toshiba\\DIODE\\1SS294 256 16 R0
SYMATTR InstName U2
SYMBOL Contrib\\Toshiba\\DIODE\\MUZ36V 880 208 R180
WINDOW 0 24 64 Left 2
WINDOW 3 24 0 Left 2
SYMATTR InstName U4
SYMBOL voltage 1056 112 R0
WINDOW 123 0 0 Left 0
WINDOW 39 0 0 Left 0
SYMATTR InstName V2
SYMATTR Value PWL(0 0 1 100)
SYMBOL res 1024 -32 R90
WINDOW 0 0 56 VBottom 2
WINDOW 3 32 56 VTop 2
SYMATTR InstName R2
SYMATTR Value 1k
SYMBOL Contrib\\Toshiba\\DIODE\\CUHZ6V8 1520 208 R180
WINDOW 0 24 64 Left 2
WINDOW 3 24 0 Left 2
SYMATTR InstName U3
SYMBOL voltage 1696 112 R0
WINDOW 123 0 0 Left 0
WINDOW 39 0 0 Left 0
SYMATTR InstName V3
SYMATTR Value PWL(0 0 1 100)
SYMBOL res 1664 -32 R90
WINDOW 0 0 56 VBottom 2
WINDOW 3 32 56 VTop 2
SYMATTR InstName R3
SYMATTR Value 1k
SYMBOL Contrib\\Toshiba\\DIODE\\DF2B6USL -496 144 R0
SYMATTR InstName U5
SYMBOL voltage -288 112 R0
WINDOW 123 0 0 Left 0
WINDOW 39 0 0 Left 0
SYMATTR InstName V4
SYMATTR Value PULSE(0 100 0 10n 10n 100m 200m)
SYMBOL res -320 -32 R90
WINDOW 0 0 56 VBottom 2
WINDOW 3 32 56 VTop 2
SYMATTR InstName R4
SYMATTR Value 1k
SYMBOL Contrib\\Toshiba\\BRT\\RN1711JE -1136 64 R0
SYMATTR InstName U6
SYMBOL voltage -880 80 R0
WINDOW 123 0 0 Left 0
WINDOW 39 0 0 Left 0
SYMATTR InstName V5
SYMATTR Value SINE(0.7 -0.001 10)
SYMBOL voltage -1296 80 R0
WINDOW 123 0 0 Left 0
WINDOW 39 0 0 Left 0
SYMATTR InstName V6
SYMATTR Value SINE(0.7 0.001 10)
SYMBOL voltage -768 -176 R0
WINDOW 123 0 0 Left 0
WINDOW 39 0 0 Left 0
SYMATTR InstName V7
SYMATTR Value 12
SYMBOL res -1104 -64 R0
SYMATTR InstName R5
SYMATTR Value 10Meg
SYMBOL res -1072 -160 R0
SYMATTR InstName R6
SYMATTR Value 1Meg
SYMBOL Contrib\\Toshiba\\BRT\\RN2706JE -992 -608 R180
SYMATTR InstName U7
SYMBOL res -1088 -576 R0
SYMATTR InstName R7
SYMATTR Value 10k
SYMBOL res -1056 -480 R0
SYMATTR InstName R8
SYMATTR Value 10k
SYMBOL voltage -784 -720 R0
WINDOW 123 0 0 Left 0
WINDOW 39 0 0 Left 0
SYMATTR InstName V8
SYMATTR Value 12
SYMBOL Contrib\\Toshiba\\HVMOS\\TK090U65Z_G0_00 208 -688 R0
SYMATTR InstName U8
SYMBOL voltage 48 -592 R0
WINDOW 123 0 0 Left 0
WINDOW 39 0 0 Left 0
SYMATTR InstName V9
SYMATTR Value PULSE(0 100 0 10n 10n 100m 200m)
SYMBOL voltage 576 -672 R0
WINDOW 123 0 0 Left 0
WINDOW 39 0 0 Left 0
SYMATTR InstName V10
SYMATTR Value 900
SYMBOL res 240 -816 R0
SYMATTR InstName R9
SYMATTR Value 1k
SYMBOL Contrib\\Toshiba\\HVMOS\\TK090U65Z_G0_00 1216 -688 R0
SYMATTR InstName U9
SYMBOL voltage 1584 -672 R0
WINDOW 123 0 0 Left 0
WINDOW 39 0 0 Left 0
SYMATTR InstName V11
SYMATTR Value 900
SYMBOL res 1248 -816 R0
SYMATTR InstName R10
SYMATTR Value 1k
SYMBOL Contrib\\Toshiba\\HVMOS\\TK090U65Z_G0_00 1136 -688 M0
SYMATTR InstName U10
SYMBOL res 1072 -816 R0
SYMATTR InstName R11
SYMATTR Value 1k
SYMBOL Contrib\\Toshiba\\LVMOS\\SSM6J771G_G0_00 2096 -896 R0
SYMATTR InstName U11
SYMBOL voltage 1936 -800 R0
WINDOW 123 0 0 Left 0
WINDOW 39 0 0 Left 0
SYMATTR InstName V12
SYMATTR Value PULSE(0 12 0 10n 10n 100m 200m)
SYMBOL voltage 2464 -880 R0
WINDOW 123 0 0 Left 0
WINDOW 39 0 0 Left 0
SYMATTR InstName V13
SYMATTR Value 50
SYMBOL res 2128 -1024 R0
SYMATTR InstName R12
SYMATTR Value 1k
SYMBOL voltage 3440 -752 R0
WINDOW 123 0 0 Left 0
WINDOW 39 0 0 Left 0
SYMATTR InstName V14
SYMATTR Value 900
SYMBOL res 3104 -896 R0
SYMATTR InstName R13
SYMATTR Value 1k
SYMBOL res 2928 -896 R0
SYMATTR InstName R14
SYMATTR Value 1k
SYMBOL Contrib\\Toshiba\\LVMOS\\SSM6J771G_G0_00 3072 -768 R0
SYMATTR InstName U12
SYMBOL Contrib\\Toshiba\\LVMOS\\SSM6J771G_G0_00 2992 -768 M0
SYMATTR InstName U13
TEXT 252 232 Left 2 !.tran 0 1 0 10u startup
