Version 4
SHEET 1 960 1136
WIRE -624 -80 -656 -80
WIRE -656 -48 -656 -80
WIRE 672 0 464 0
WIRE 464 32 464 0
WIRE -656 64 -656 32
WIRE 672 80 672 0
WIRE -624 112 -656 112
WIRE -96 112 -160 112
WIRE 288 112 112 112
WIRE 416 112 368 112
WIRE -656 144 -656 112
WIRE -96 144 -160 144
WIRE 160 144 112 144
WIRE 256 144 160 144
WIRE 160 160 160 144
WIRE 256 160 256 144
WIRE -96 176 -160 176
WIRE 160 240 160 224
WIRE 160 240 112 240
WIRE 464 240 464 128
WIRE 464 240 160 240
WIRE 528 240 464 240
WIRE 672 240 672 160
WIRE 672 240 608 240
WIRE -656 256 -656 224
WIRE -160 272 -176 272
WIRE -96 272 -160 272
WIRE 160 272 112 272
WIRE 256 272 256 224
WIRE 256 272 160 272
WIRE 272 272 256 272
WIRE 160 288 160 272
WIRE -160 304 -160 272
WIRE 464 320 464 240
WIRE -624 336 -656 336
WIRE 672 336 672 240
WIRE -656 368 -656 336
WIRE 160 368 160 352
WIRE 160 368 112 368
WIRE 560 384 560 352
WIRE -160 400 -160 368
WIRE -96 400 -160 400
WIRE 288 400 112 400
WIRE 416 400 368 400
WIRE 160 448 160 368
WIRE 464 448 464 416
WIRE 464 448 160 448
WIRE -656 480 -656 448
WIRE -160 480 -160 400
WIRE 464 480 464 448
WIRE 560 480 560 464
WIRE 672 480 672 416
FLAG 464 480 0
FLAG 272 272 VCC
FLAG 672 480 0
FLAG 560 480 0
FLAG 560 352 VCC
FLAG -160 480 0
FLAG -656 480 0
FLAG -656 256 0
FLAG -176 272 VCC
FLAG -656 64 0
FLAG -624 -80 sd
IOPIN -624 -80 Out
FLAG -160 176 sd
IOPIN -160 176 In
FLAG -160 112 hin
IOPIN -160 112 In
FLAG -160 144 lin
IOPIN -160 144 In
FLAG -624 336 lin
IOPIN -624 336 Out
FLAG -624 112 hin
IOPIN -624 112 Out
SYMBOL nmos 416 32 R0
WINDOW 3 65 -7 Left 0
SYMATTR InstName M1
SYMATTR Value Si4982DY
SYMBOL nmos 416 320 R0
WINDOW 3 -60 -16 Left 0
SYMATTR InstName M2
SYMATTR Value Si4982DY
SYMBOL res 384 96 R90
WINDOW 0 16 107 VBottom 0
WINDOW 3 -11 7 VTop 0
SYMATTR InstName R1
SYMATTR Value 33
SYMBOL res 384 384 R90
WINDOW 0 16 112 VBottom 0
WINDOW 3 -12 7 VTop 0
SYMATTR InstName R2
SYMATTR Value 33
SYMBOL cap 144 160 R0
WINDOW 0 28 8 Left 0
WINDOW 3 24 53 Left 0
SYMATTR InstName C1
SYMATTR Value 2.2µF
SYMBOL cap 144 288 R0
WINDOW 3 28 57 Left 0
SYMATTR Value 2.2µF
SYMATTR InstName C2
SYMBOL schottky 272 224 R180
WINDOW 0 -29 68 Left 0
WINDOW 3 -106 -4 Left 0
SYMATTR InstName D1
SYMATTR Value MURS120
SYMATTR Description Diode
SYMATTR Type diode
SYMBOL voltage 672 64 R0
WINDOW 123 0 0 Left 0
WINDOW 39 0 0 Left 0
WINDOW 0 -11 59 Left 0
WINDOW 3 -33 1 Left 0
SYMATTR InstName V1
SYMATTR Value 30
SYMBOL voltage 672 320 R0
WINDOW 123 0 0 Left 0
WINDOW 39 0 0 Left 0
WINDOW 0 -13 58 Left 0
WINDOW 3 -30 9 Left 0
SYMATTR InstName V2
SYMATTR Value 30
SYMBOL res 624 224 R90
WINDOW 0 16 117 VBottom 0
WINDOW 3 -11 -13 VTop 0
SYMATTR InstName R3
SYMATTR Value 100
SYMBOL cap -176 304 R0
SYMATTR InstName C3
SYMATTR Value 10µf
SYMBOL IR2110 0 256 R0
WINDOW 0 16 -157 Center 0
SYMATTR InstName U1
SYMATTR Value IR2010
SYMBOL voltage 560 368 R0
WINDOW 123 0 0 Left 0
WINDOW 39 0 0 Left 0
WINDOW 0 -14 60 Left 0
WINDOW 3 -36 1 Left 0
SYMATTR InstName V3
SYMATTR Value 12
SYMBOL voltage -656 128 R0
WINDOW 3 42 90 Left 0
WINDOW 123 0 0 Left 0
WINDOW 39 0 0 Left 0
SYMATTR Value PULSE(0 12 20u 20n 20n 4u 10u)
SYMATTR InstName V4
SYMBOL voltage -656 352 R0
WINDOW 3 35 102 Left 0
WINDOW 123 0 0 Left 0
WINDOW 39 0 0 Left 0
SYMATTR Value PULSE(0 12 24.1u 20n 20n 5.8u 10u)
SYMATTR InstName V5
SYMBOL voltage -656 -64 R0
WINDOW 3 32 103 Left 0
WINDOW 123 0 0 Left 0
WINDOW 39 0 0 Left 0
SYMATTR Value PWL(0 0 36u 0 36.1u 12 42u 12 42.1u 0 51u 0 51.1u 12 52.1u 12 52.2u 0)
SYMATTR InstName V10
TEXT -672 -152 Left 0 !.tran 0 70u 0
TEXT 136 -104 Left 0 !.options reltol=1e-2
TEXT 136 -40 Left 0 !.options gmin 1e-10
TEXT -464 -152 Left 0 ;Gate Driver IR2010 And IR2110\nHelmut Sennewald\n \nUse the Alternate-solver.\nControl Panel -> SPICE -> Solver:Alternate
TEXT 136 -72 Left 0 !.options trtol=7
TEXT 136 -8 Left 0 !.options method=gear
TEXT 136 24 Left 0 !.options maxstep=10n
TEXT -96 480 Left 0 ;IR2010 or  IR2110
TEXT 144 -176 Left 0 ;It all helps for con-\nvergence and speed
RECTANGLE Normal 400 56 128 -200
