Version 4
SHEET 1 2412 1728
WIRE 384 80 384 64
WIRE 96 160 96 144
WIRE 1520 160 1520 144
WIRE -80 176 -128 176
WIRE 64 176 -80 176
WIRE 1344 176 1296 176
WIRE 1488 176 1344 176
WIRE 288 192 128 192
WIRE 384 192 384 160
WIRE 384 192 368 192
WIRE 400 192 384 192
WIRE 432 192 400 192
WIRE 624 192 512 192
WIRE 1344 192 1344 176
WIRE 1760 192 1552 192
WIRE 2032 192 1888 192
WIRE -80 208 -80 176
WIRE 64 208 32 208
WIRE 1232 208 1120 208
WIRE 1488 208 1456 208
WIRE 96 240 96 224
WIRE 624 240 624 192
WIRE 688 240 624 240
WIRE 1520 240 1520 224
WIRE 2032 240 2032 192
WIRE 2096 240 2032 240
WIRE 688 256 688 240
WIRE 1120 256 1120 208
WIRE 2096 256 2096 240
WIRE 1232 288 1232 208
WIRE 1344 288 1344 272
WIRE 1344 288 1232 288
WIRE 144 304 48 304
WIRE 240 304 208 304
WIRE 1568 304 1472 304
WIRE 1664 304 1632 304
WIRE -80 320 -80 288
WIRE 688 352 688 336
WIRE 2096 352 2096 336
WIRE 1120 368 1120 336
WIRE -128 384 -128 176
WIRE 48 384 48 304
WIRE 48 384 -128 384
WIRE 80 384 48 384
WIRE 240 384 240 304
WIRE 240 384 160 384
WIRE 624 384 624 240
WIRE 624 384 240 384
WIRE 1296 384 1296 176
WIRE 1472 384 1472 304
WIRE 1472 384 1296 384
WIRE 1504 384 1472 384
WIRE 1664 384 1664 304
WIRE 1664 384 1584 384
WIRE 2032 384 2032 240
WIRE 2032 384 1664 384
WIRE -368 480 -368 464
WIRE -256 480 -256 464
WIRE 96 528 96 512
WIRE 1520 528 1520 512
WIRE -80 544 -128 544
WIRE 64 544 -80 544
WIRE 1344 544 1296 544
WIRE 1488 544 1344 544
WIRE -80 560 -80 544
WIRE 352 560 128 560
WIRE 368 560 352 560
WIRE 480 560 448 560
WIRE 608 560 480 560
WIRE 1344 560 1344 544
WIRE 1760 560 1552 560
WIRE 2032 560 1888 560
WIRE -368 576 -368 560
WIRE -256 576 -256 560
WIRE 64 576 32 576
WIRE 1232 576 1120 576
WIRE 1488 576 1456 576
WIRE 96 608 96 592
WIRE 608 608 608 560
WIRE 672 608 608 608
WIRE 1520 608 1520 592
WIRE 2032 608 2032 560
WIRE 2096 608 2032 608
WIRE 672 624 672 608
WIRE 1120 624 1120 576
WIRE 2096 624 2096 608
WIRE -80 656 -80 640
WIRE 1232 656 1232 576
WIRE 1344 656 1344 640
WIRE 1344 656 1232 656
WIRE 144 672 48 672
WIRE 240 672 208 672
WIRE 1568 672 1472 672
WIRE 1664 672 1632 672
WIRE 672 720 672 704
WIRE 2096 720 2096 704
WIRE 1120 736 1120 704
WIRE -128 752 -128 544
WIRE 48 752 48 672
WIRE 48 752 -128 752
WIRE 80 752 48 752
WIRE 240 752 240 672
WIRE 240 752 160 752
WIRE 608 752 608 608
WIRE 608 752 240 752
WIRE 1296 752 1296 544
WIRE 1472 752 1472 672
WIRE 1472 752 1296 752
WIRE 1504 752 1472 752
WIRE 1664 752 1664 672
WIRE 1664 752 1584 752
WIRE 2032 752 2032 608
WIRE 2032 752 1664 752
FLAG 384 64 0
FLAG -256 576 0
FLAG 32 208 0
FLAG -80 320 0
FLAG 688 352 0
FLAG 32 576 0
FLAG -80 656 0
FLAG 352 560 X
FLAG 480 560 Y
FLAG 96 144 +V
FLAG -256 464 +V
FLAG -368 576 0
FLAG -368 464 -V
FLAG 96 240 -V
FLAG 96 512 +V
FLAG 96 608 -V
FLAG 672 720 0
FLAG 1520 144 +V
FLAG 1520 240 -V
FLAG 2096 352 0
FLAG 1120 368 0
FLAG 1520 512 +V
FLAG 1520 608 -V
FLAG 2096 720 0
FLAG 1120 736 0
FLAG 1456 208 0
FLAG 1456 576 0
FLAG 400 192 Z
SYMBOL voltage -256 464 R0
WINDOW 123 0 0 Left 0
WINDOW 39 0 0 Left 0
SYMATTR InstName V1
SYMATTR Value 15
SYMBOL current 384 80 R0
WINDOW 38 39 48 Left 0
SYMATTR SpiceModel AC
SYMATTR InstName I1
SYMATTR Value 1
SYMBOL voltage 384 192 R90
WINDOW 0 -32 56 VBottom 0
WINDOW 3 32 56 VTop 0
SYMATTR InstName V3
SYMATTR Value 0
SYMBOL voltage 416 192 R270
WINDOW 0 32 56 VTop 0
WINDOW 3 -32 56 VBottom 0
WINDOW 123 0 0 Left 0
WINDOW 39 0 0 Left 0
SYMATTR InstName V4
SYMATTR Value 0
SYMBOL res 672 240 R0
SYMATTR InstName R1
SYMATTR Value 100
SYMBOL res -96 192 R0
SYMATTR InstName R2
SYMATTR Value 1K
SYMBOL res 176 368 R90
WINDOW 0 0 56 VBottom 0
WINDOW 3 32 56 VTop 0
SYMATTR InstName R3
SYMATTR Value 1K
SYMBOL cap 208 288 R90
WINDOW 0 0 32 VBottom 0
WINDOW 3 32 32 VTop 0
SYMATTR InstName C1
SYMATTR Value 3p
SYMBOL Opamps\\LT1001 96 128 R0
WINDOW 0 27 42 Left 0
WINDOW 3 25 87 Left 0
SYMATTR InstName U1
SYMBOL res -96 544 R0
SYMATTR InstName R5
SYMATTR Value 1K
SYMBOL res 176 768 M270
WINDOW 0 32 56 VTop 0
WINDOW 3 0 56 VBottom 0
SYMATTR InstName R6
SYMATTR Value 1K
SYMBOL cap 208 688 M270
WINDOW 0 32 32 VTop 0
WINDOW 3 0 32 VBottom 0
SYMATTR InstName C2
SYMATTR Value 3p
SYMBOL voltage -368 464 R0
WINDOW 123 0 0 Left 0
WINDOW 39 0 0 Left 0
SYMATTR InstName V5
SYMATTR Value -15
SYMBOL Opamps\\LT1001 96 496 R0
WINDOW 0 27 42 Left 0
WINDOW 3 25 87 Left 0
SYMATTR InstName U2
SYMBOL res 656 608 R0
SYMATTR InstName R4
SYMATTR Value 100
SYMBOL voltage 464 560 R90
WINDOW 0 -32 56 VBottom 0
WINDOW 3 32 56 VTop 0
WINDOW 38 60 56 VTop 0
SYMATTR InstName V2
SYMATTR Value 1
SYMATTR SpiceModel AC
SYMBOL res 1328 176 R0
SYMATTR InstName R8
SYMATTR Value 1K
SYMBOL res 1600 400 M270
WINDOW 0 32 56 VTop 0
WINDOW 3 0 56 VBottom 0
SYMATTR InstName R9
SYMATTR Value 1K
SYMBOL cap 1632 320 M270
WINDOW 0 32 32 VTop 0
WINDOW 3 0 32 VBottom 0
SYMATTR InstName C3
SYMATTR Value 3p
SYMBOL Opamps\\LT1001 1520 128 R0
WINDOW 0 27 42 Left 0
WINDOW 3 25 87 Left 0
SYMATTR InstName U3
SYMBOL res 2080 240 R0
SYMATTR InstName R7
SYMATTR Value 100
SYMBOL voltage 1120 240 R0
WINDOW 38 60 56 VTop 0
WINDOW 123 24 132 Left 0
WINDOW 39 0 0 Left 0
SYMATTR Value2 AC {1-lp*lp}
SYMATTR InstName Vin
SYMATTR Value ""
SYMBOL loop_probe 1808 192 R0
WINDOW 0 0 0 Left 0
WINDOW 39 0 28 Left 0
SYMATTR InstName Xlp
SYMATTR SpiceLine lpvar=lp
SYMBOL res 1328 544 R0
SYMATTR InstName R11
SYMATTR Value 1K
SYMBOL res 1600 768 M270
WINDOW 0 32 56 VTop 0
WINDOW 3 0 56 VBottom 0
SYMATTR InstName R12
SYMATTR Value 1K
SYMBOL cap 1632 688 M270
WINDOW 0 32 32 VTop 0
WINDOW 3 0 32 VBottom 0
SYMATTR InstName C4
SYMATTR Value 3p
SYMBOL Opamps\\LT1001 1520 496 R0
WINDOW 0 27 42 Left 0
WINDOW 3 25 87 Left 0
SYMATTR InstName U4
SYMBOL res 2080 608 R0
SYMATTR InstName R10
SYMATTR Value 100
SYMBOL voltage 1120 608 R0
WINDOW 38 60 56 VTop 0
WINDOW 123 24 132 Left 0
WINDOW 39 0 0 Left 0
SYMATTR Value2 AC {1-lp*lp}
SYMATTR InstName Vin2
SYMATTR Value ""
SYMBOL loop_probe 1840 560 M0
WINDOW 0 0 0 Left 0
WINDOW 39 0 28 Left 0
SYMATTR InstName Xlp2
SYMATTR SpiceLine lpvar=lp
TEXT -378 670 Left 0 !.ac dec 30 .1 100Meg
TEXT 272 -40 Left 0 ;Elements added to \ncompute current gain\nGi=I(V3)/I(V4)
TEXT 288 416 Left 0 ;Element added to \ncompute voltage gain\nGv=-V(x)/V(y)
TEXT -456 -272 Left 0 ;Here the open loop gain is determined from the closed loop system[1].\nThe voltage gain and current gain are independently measured in\ntwo circuits identical except for the elements inserted into\nthe loop to make the measurements.  Then the open loop gain\ncan be plotted by plotting the quantity:\n \n((I(V3)/I(V4))*(-V(x)/V(y))-1)/((I(V3)/I(V4))+(-V(x)/V(y))+2)\n \nAlternatively, you can add the lines\n.func Gi()=I(V3)/I(V4)\n.func Gv()=-V(x)/V(y)\n.func middlebrook(x,y) = (x*y-1)/(x+y+2)\nto your plot.defs file and then plot the quantity\nmiddlebrook(Gi(),Gv())
TEXT -304 840 Left 0 ;This example schematic is supplied for informational/educational purposes only.
TEXT -544 808 Left 0 ;1] Middlebrook, R.D., "Measurement of Loop Gain in Feedback Systems", Int. J. Electronics, vol 38, No. 4, pp. 485-512, 1975
TEXT 1136 48 Left 0 !.param lp=0
TEXT 1136 80 Left 0 !.step param lp list 1 -1
TEXT 1136 -456 Left 0 ;For the following examples, you should select under\nSimulate -> Control Panel, Tab "Save Defaults":\nSave Device Currents\nSave Subcircuit Node Voltages\nSave Subcircuit Device Currents\n \nDuplicating the circuit can be avoided by using a .step command\nto simulate the voltage gain and the current gain. In this example,\nthe sources are placed inside the subcircuit Xlp, which acts as a\nloop gain probe. Here, Middlebrook's loop gain corresponds to the\nquantity\n \n1/(V(Xlp:probe)@1+I(Xlp:Vprobe)@2)-1\n \nIn order to simulate the closed-loop gain, simply comment out the\n.step command. This will deactivate the sources inside the Xlp\nsubcircuit and will activate the input source Vin.
TEXT 1136 824 Left 0 ;Middlebrook developed his formula for a loop with no backward\ntransmission like the one that is used in this example. Tian [2] has\ngeneralized this formula for loops with backward transmission.\nIn our example, Tian's formula corresponds to the quantity\n \n1/(1/(2*(I(Xlp:Vinj)@1*V(Xlp:probe)@2-V(Xlp:probe)@1*I(Xlp:Vinj)@2)+V(Xlp:probe)@1+I(Xlp:Vinj)@2)-1)\n \nAs we have no backward transmission in this example,\nTian's formula gives exactly the same result as Middlebrook's.\nHowever, the differences become clear when the loop gain probe\nis inserted in the opposite direction like it has been done for Xlp2.\nWhile the result of Middlebrook's formula changes completely\nin this case, the result of Tian's formula remains the same,\nbecause it is independent of the direction in which the probe\nis inserted.\n \nIn order to calculate the loop gain during a parameter sweep,\nthe easiest solution is generally to duplicate the circuit,\nlike it was done in the example on the left. For this configuration,\nTian's formula corresponds to the quantity\n \n1/(1/(2*(I(V2)*V(Z)-V(Y)*I(V3))+V(Y)+I(V3))-1)\n \n[2] Michael Tian, V. Visvanathan, Jeffrey Hantgan, and Kenneth Kundert,\n     "Striving for Small-Signal Stability", IEEE Circuits and Devices Magazine,\n      vol. 17, no. 1, pp. 31-41, January 2001.
LINE Normal 524 258 524 33
LINE Normal 274 258 524 258
LINE Normal 274 33 524 33
LINE Normal 274 258 274 33
LINE Normal 285 491 535 491
LINE Normal 285 649 535 649
LINE Normal 535 649 535 491
LINE Normal 285 649 285 491
