Version 4
SHEET 1 880 680
WIRE -1776 -432 -1824 -432
WIRE -1712 -432 -1776 -432
WIRE -2144 -384 -2224 -384
WIRE -1936 -384 -1968 -384
WIRE -1824 -384 -1824 -432
WIRE -1824 -384 -1856 -384
WIRE -1600 -384 -1616 -384
WIRE -1472 -384 -1536 -384
WIRE -1392 -384 -1472 -384
WIRE -2224 -352 -2224 -384
WIRE -1776 -352 -1776 -432
WIRE -1472 -352 -1472 -384
WIRE -1392 -352 -1392 -384
WIRE -1712 -336 -1712 -352
WIRE -1616 -336 -1616 -384
WIRE -1616 -336 -1712 -336
WIRE -2144 -320 -2144 -384
WIRE -2112 -320 -2144 -320
WIRE -1952 -320 -1968 -320
WIRE -1712 -320 -1712 -336
WIRE -1776 -240 -1776 -288
WIRE -1712 -240 -1776 -240
WIRE -2224 -224 -2224 -272
WIRE -1776 -224 -1776 -240
WIRE -1472 -224 -1472 -288
WIRE -1392 -224 -1392 -272
FLAG -1472 -224 0
FLAG -1392 -224 0
FLAG -1776 -224 0
FLAG -2224 -224 0
SYMBOL res -1408 -368 R0
SYMATTR InstName R0
SYMATTR Value 33k
SYMBOL cap -1488 -352 R0
SYMATTR InstName C0
SYMATTR Value 10n
SYMATTR SpiceLine V=10 Irms=0 Rser=0.009 MTBF=0 Lser=0 ppPkg=1
SYMBOL cap -1792 -352 R0
WINDOW 3 23 55 Left 0
SYMATTR Value 524pf
SYMATTR InstName C1
SYMBOL diode -1600 -368 R270
WINDOW 0 32 32 VTop 0
WINDOW 3 0 32 VBottom 0
SYMATTR InstName D1
SYMATTR Value 1N34A
SYMBOL res -1840 -368 M270
WINDOW 0 32 56 VTop 0
WINDOW 3 0 56 VBottom 0
SYMATTR InstName Ra
SYMATTR Value 80k
SYMBOL voltage -2224 -368 R0
WINDOW 3 25 110 Left 0
WINDOW 123 0 0 Left 0
WINDOW 39 0 0 Left 0
SYMATTR Value SINE(125e-3 75e-3 1000)
SYMATTR InstName V
SYMBOL SpecialFunctions\\modulate2 -2112 -384 R0
SYMATTR InstName A1
SYMATTR SpiceLine mark=0.58e6 space=0
SYMBOL ind2 -1728 -448 R0
WINDOW 3 -40 31 Left 0
SYMATTR Value 34µh
SYMATTR InstName L1
SYMATTR Type ind
SYMBOL ind2 -1728 -336 R0
WINDOW 3 -40 73 Left 0
SYMATTR Value 70µh
SYMATTR InstName L2
SYMATTR Type ind
TEXT -1976 -440 Left 0 !.tran 0 4e-3 0 1e-7
TEXT -1752 -224 Left 0 !K1 L1 L2 0.4
TEXT -1664 -456 Left 0 ;N2=26 N1=16
