* Netlist Order:              1   2       3        4 
* Functional Netlist-order: Dio+ Dio- Collector Emitter
*
.SUBCKT MOC8101 1 2 3 5
* ISOLATOR A C COL EMITTER
RB 4 0 100Meg
VM 1 6 0
D1 6 2 LED
H1 7 0 VM .0055
R1 7 8 1K
C1 8 0 3.35nF
G1 3 4 8 0 1
Q1 3 4 5 MPSA06
.MODEL LED D(N=1.7 RS=.7 CJO=23.9P IS=85.3p BV=6 IBV=10U
+ VJ=0.75 M=0.333 TT=4.32U)
.MODEL MPSA06 NPN (IS=15.2F NF=1 BF=589 VAF=98.6 IKF=90M ISE=3.34P NE=2
+ BR=4 NR=1 VAR=16 IKR=0.135 RE=0.343 RB=1.37 RC=0.137 XTB=1.5
+ CJE=9.67P VJE=1.1 MJE=0.5 CJC=7.34P VJC=0.3 MJC=0.3 TF=10.29n TR=276N)
.ENDS MOC8101