Version 4
SHEET 1 1020 680
WIRE -240 48 -240 16
WIRE -240 320 -240 48
WIRE -240 416 -240 400
WIRE -160 48 -240 48
WIRE -160 64 -160 48
WIRE -160 192 -160 160
WIRE -160 208 -160 192
WIRE -160 432 -160 288
WIRE -144 192 -160 192
WIRE -96 48 -160 48
WIRE -64 112 -96 112
WIRE -64 304 -64 112
WIRE -64 320 -64 304
WIRE -64 416 -240 416
WIRE -64 416 -64 400
WIRE -64 528 -64 416
WIRE -32 192 -80 192
WIRE -32 192 -32 112
WIRE -32 208 -32 192
WIRE -32 416 -64 416
WIRE -32 416 -32 288
WIRE -16 112 -32 112
WIRE 16 304 -64 304
WIRE 16 320 16 304
WIRE 48 48 -16 48
WIRE 48 64 48 48
WIRE 96 48 48 48
WIRE 96 304 96 48
WIRE 96 384 16 384
WIRE 96 384 96 368
WIRE 128 384 96 384
WIRE 128 384 128 240
WIRE 144 160 128 160
WIRE 144 432 -160 432
WIRE 144 432 144 336
WIRE 208 16 -240 16
WIRE 208 64 208 16
WIRE 208 80 208 64
WIRE 208 112 208 80
WIRE 208 240 128 240
WIRE 208 240 208 208
WIRE 208 288 208 240
WIRE 208 416 -32 416
WIRE 208 416 208 384
WIRE 240 64 208 64
WIRE 272 80 208 80
WIRE 272 128 272 80
WIRE 272 272 272 208
WIRE 272 320 272 272
WIRE 272 416 208 416
WIRE 272 416 272 400
WIRE 320 64 304 64
WIRE 320 112 320 64
WIRE 320 240 208 240
WIRE 320 240 320 176
WIRE 320 416 272 416
WIRE 320 448 320 416
WIRE 320 544 272 544
WIRE 320 544 320 512
WIRE 336 64 320 64
WIRE 368 272 272 272
WIRE 368 288 368 272
WIRE 368 560 368 352
WIRE 416 64 400 64
WIRE 416 112 416 64
WIRE 416 416 320 416
WIRE 416 416 416 176
WIRE 416 448 416 416
WIRE 416 544 320 544
WIRE 416 544 416 528
WIRE 432 64 416 64
WIRE 512 64 496 64
WIRE 512 112 512 64
WIRE 512 240 320 240
WIRE 512 240 512 176
WIRE 512 416 416 416
WIRE 512 432 512 416
WIRE 512 528 512 512
WIRE 528 64 512 64
WIRE 608 64 592 64
WIRE 608 112 608 64
WIRE 608 416 512 416
WIRE 608 416 608 176
WIRE 608 432 608 416
WIRE 656 64 608 64
WIRE 656 192 656 64
WIRE 656 208 656 192
WIRE 656 304 656 288
WIRE 656 336 656 304
WIRE 672 64 656 64
WIRE 672 192 656 192
WIRE 688 304 656 304
WIRE 688 304 688 272
WIRE 688 336 656 336
WIRE 720 144 720 128
WIRE 720 272 688 272
WIRE 720 272 720 256
WIRE 720 304 720 272
WIRE 720 400 720 368
WIRE 720 512 608 512
WIRE 720 512 720 496
WIRE 768 144 720 144
WIRE 768 176 768 144
WIRE 768 192 768 176
WIRE 800 64 768 64
WIRE 800 96 800 64
WIRE 800 176 768 176
WIRE 800 448 784 448
WIRE 800 560 368 560
WIRE 800 560 800 448
WIRE 816 448 800 448
WIRE 848 224 848 176
WIRE 848 416 848 304
WIRE 848 512 720 512
WIRE 848 512 848 480
WIRE 848 528 512 528
WIRE 848 528 848 512
WIRE 880 64 800 64
WIRE 880 544 416 544
WIRE 880 544 880 64
WIRE 928 64 880 64
WIRE 928 176 848 176
WIRE 928 176 928 64
WIRE 928 336 928 176
WIRE 928 512 848 512
WIRE 928 512 928 400
FLAG -64 528 0
FLAG 272 544 Out
IOPIN 272 544 Out
SYMBOL pnp2 -96 160 R180
WINDOW 0 80 74 Left 0
WINDOW 3 22 46 Left 0
SYMATTR InstName Q1
SYMATTR Value BC558C
SYMBOL pnp2 -16 160 M180
WINDOW 0 53 71 Left 0
WINDOW 3 19 47 Left 0
SYMATTR InstName Q2
SYMATTR Value BC558C
SYMBOL res 0 32 R90
WINDOW 0 57 89 VBottom 0
WINDOW 3 30 29 VTop 0
SYMATTR InstName R1
SYMATTR Value 10
SYMATTR SpiceLine tol=1 pwr=0.1
SYMBOL Misc\\battery -240 304 R0
WINDOW 0 8 -14 Left 0
WINDOW 3 4 19 Left 0
WINDOW 123 0 0 Left 0
WINDOW 39 -18 -93 VRight 0
SYMATTR InstName V1
SYMATTR Value 6.6
SYMATTR SpiceLine Rser=.1
SYMBOL res -48 192 R0
WINDOW 0 32 47 Left 0
WINDOW 3 31 82 Left 0
SYMATTR InstName R5
SYMATTR Value 3k3
SYMATTR SpiceLine tol=1 pwr=0.1
SYMBOL polcap 80 304 R0
WINDOW 0 -32 36 Left 0
WINDOW 3 -32 62 Left 0
SYMATTR InstName C1
SYMATTR Value 47µ
SYMATTR Description Capacitor
SYMATTR Type cap
SYMATTR SpiceLine V=6.3 Irms=0 Rser=0.002 MTBF=0 Lser=0 mfg="TDK" pn="C4532X5ROJ47@M" type="X5R" ppPkg=1
SYMBOL cap -80 176 R90
WINDOW 0 9 56 VBottom 0
WINDOW 3 -17 5 VTop 0
SYMATTR InstName C2
SYMATTR Value 1n
SYMBOL res -176 192 R0
WINDOW 0 -33 7 Left 0
WINDOW 3 -31 32 Left 0
SYMATTR InstName R6
SYMATTR Value 39
SYMATTR SpiceLine tol=1 pwr=0.1
SYMBOL res -80 304 R0
WINDOW 0 -34 33 Left 0
WINDOW 3 -38 63 Left 0
SYMATTR InstName R2
SYMATTR Value 6k8
SYMATTR SpiceLine tol=1 pwr=0.1
SYMBOL cap 0 320 R0
WINDOW 0 -24 5 Left 0
WINDOW 3 -23 56 Left 0
SYMATTR InstName C3
SYMATTR Value 1n
SYMBOL npn3 144 112 R0
WINDOW 0 -1 -6 Left 0
WINDOW 3 -33 108 Left 0
SYMATTR InstName Q3
SYMATTR Value BDX35
SYMBOL npn3 144 288 R0
WINDOW 0 9 5 Left 0
WINDOW 3 26 48 Left 0
SYMATTR InstName Q4
SYMATTR Value BDX35
SYMBOL diode 240 80 R270
WINDOW 0 32 32 VTop 0
WINDOW 3 -1 19 Invisible 0
SYMATTR InstName D1
SYMATTR Value MBRS340
SYMBOL diode 336 80 R270
WINDOW 0 32 32 VTop 0
WINDOW 3 0 32 Invisible 0
SYMATTR InstName D2
SYMATTR Value MBRS340
SYMBOL diode 432 80 R270
WINDOW 0 32 32 VTop 0
WINDOW 3 0 32 Invisible 0
SYMATTR InstName D3
SYMATTR Value MBRS340
SYMBOL diode 528 80 R270
WINDOW 0 32 32 VTop 0
WINDOW 3 0 32 Invisible 0
SYMATTR InstName D4
SYMATTR Value MBRS340
SYMBOL polcap 304 112 R0
WINDOW 3 24 64 Left 0
SYMATTR Value 10µ
SYMATTR InstName C4
SYMATTR Description Capacitor
SYMATTR Type cap
SYMATTR SpiceLine V=6.3 Irms=0 Rser=0.001 MTBF=0 Lser=0 mfg="TDK" pn="C3216X5ROJ106M" type="X5R" ppPkg=1
SYMBOL polcap 400 112 R0
WINDOW 3 24 64 Left 0
SYMATTR Value 10µ
SYMATTR InstName C5
SYMATTR Description Capacitor
SYMATTR Type cap
SYMATTR SpiceLine V=6.3 Irms=0 Rser=0.001 MTBF=0 Lser=0 mfg="TDK" pn="C3216X5ROJ106M" type="X5R" ppPkg=1
SYMBOL polcap 496 112 R0
WINDOW 3 24 64 Left 0
SYMATTR Value 22µ
SYMATTR InstName C6
SYMATTR Description Capacitor
SYMATTR Type cap
SYMATTR SpiceLine V=6.3 Irms=0 Rser=0.0008 MTBF=0 Lser=0 mfg="TDK" pn="C3225X5ROJ226M" type="X5R" ppPkg=1
SYMBOL polcap 592 112 R0
WINDOW 3 21 64 Left 0
SYMATTR Value 47µ
SYMATTR InstName C7
SYMATTR Description Capacitor
SYMATTR Type cap
SYMATTR SpiceLine V=63 Irms=600m Rser=0.13 MTBF=20000 Lser=0 mfg="Nichicon" pn="UPH1J470MRH" type="Al electrolytic" ppPkg=1
SYMBOL res 144 144 R90
WINDOW 0 60 94 VBottom 0
WINDOW 3 32 56 VTop 0
SYMATTR InstName R3
SYMATTR Value 10
SYMBOL npn3 672 128 R270
WINDOW 3 70 9 VRight 0
WINDOW 0 44 33 VRight 0
SYMATTR Value BFY52
SYMATTR InstName Q5
SYMBOL npn3 784 400 M0
WINDOW 0 38 33 Left 0
WINDOW 3 33 60 Left 0
SYMATTR InstName Q6
SYMATTR Value 2N3904
SYMBOL pnp2 768 256 M270
WINDOW 0 40 63 VLeft 0
WINDOW 3 67 88 VLeft 0
SYMATTR InstName Q7
SYMATTR Value 2N3906
SYMBOL res 784 80 R0
WINDOW 0 39 51 Left 0
SYMATTR InstName R4
SYMATTR Value 100
SYMATTR SpiceLine tol=1 pwr=0.1
SYMBOL res 640 192 R0
WINDOW 0 -21 30 Left 0
WINDOW 3 33 65 Left 0
SYMATTR InstName R7
SYMATTR Value 2K7
SYMATTR SpiceLine tol=1 pwr=0.1
SYMBOL Pote 704 272 R0
WINDOW 0 -90 58 Left 0
WINDOW 123 -54 122 Center 0
WINDOW 3 -48 96 Center 0
SYMATTR InstName U1
SYMATTR Value Rv=10k
SYMBOL zener 944 400 R180
WINDOW 0 23 -12 Left 0
WINDOW 3 40 44 VRight 0
SYMATTR InstName D5
SYMATTR Value BZX84C6V2L
SYMBOL Pote 832 384 R0
WINDOW 0 -42 42 Left 0
WINDOW 123 -32 15 Center 0
WINDOW 3 -35 -9 Center 0
SYMATTR InstName U2
SYMATTR Value2 Set=0.6
SYMATTR Value Rt=500
SYMBOL res 832 208 R0
WINDOW 0 -34 39 Left 0
WINDOW 3 -34 70 Left 0
SYMATTR InstName R8
SYMATTR Value 1K
SYMATTR SpiceLine tol=1 pwr=0.1
SYMBOL res 592 416 R0
WINDOW 0 -28 21 Left 0
WINDOW 3 -44 65 Left 0
SYMATTR InstName R9
SYMATTR Value 1K2
SYMATTR SpiceLine tol=1 pwr=0.1
SYMBOL res 496 416 R0
WINDOW 0 -44 23 Left 0
WINDOW 3 -37 66 Left 0
SYMATTR InstName R10
SYMATTR Value 1K
SYMATTR SpiceLine tol=1 pwr=0.1
SYMBOL res 400 432 R0
WINDOW 0 -30 10 Left 0
WINDOW 3 -28 66 Left 0
SYMATTR InstName R11
SYMATTR Value 12
SYMATTR SpiceLine tol=1 pwr=0.1
SYMBOL res 256 112 R0
WINDOW 0 -47 31 Left 0
WINDOW 3 -40 90 Left 0
SYMATTR InstName R12
SYMATTR Value 560
SYMATTR SpiceLine tol=1 pwr=0.1
SYMBOL res 256 304 R0
SYMATTR InstName R13
SYMATTR Value 1K
SYMATTR SpiceLine tol=1 pwr=0.1
SYMBOL diode 352 288 R0
SYMATTR InstName D6
SYMATTR Value 1N4148
SYMBOL cap 304 448 R0
WINDOW 0 23 8 Left 0
WINDOW 3 21 65 Left 0
SYMATTR InstName C8
SYMATTR Value 22µ
SYMATTR SpiceLine V=25 Irms=0 Rser=0.2 MTBF=0 Lser=0 mfg="AVX" pn="TPSD226M025R0200" type="Tantalum" ppPkg=0
TEXT -2 450 Left 0 !.tran 0 3m 2.9m startup
