Version 4
SHEET 1 900 704
WIRE -560 80 -560 48
WIRE -560 176 -608 176
WIRE -560 176 -560 160
WIRE -560 192 -560 176
WIRE -560 320 -560 272
WIRE -528 48 -560 48
WIRE -512 320 -560 320
WIRE -352 256 -352 192
WIRE -352 368 -352 336
WIRE -288 368 -352 368
WIRE -288 384 -288 368
WIRE -240 144 -240 0
WIRE -240 192 -352 192
WIRE -240 192 -240 144
WIRE -240 272 -240 192
WIRE -240 368 -288 368
WIRE -240 368 -240 336
WIRE -208 0 -240 0
WIRE -208 208 -208 176
WIRE -192 144 -240 144
WIRE -192 176 -208 176
WIRE -80 352 -80 272
WIRE -16 272 -80 272
WIRE -16 272 -16 192
WIRE 16 160 -128 160
WIRE 16 192 -16 192
WIRE 320 224 272 224
WIRE 320 272 320 224
WIRE 352 0 -128 0
WIRE 352 160 272 160
WIRE 352 160 352 0
WIRE 432 192 272 192
WIRE 432 272 320 272
FLAG -608 176 0
FLAG -160 128 V12P
FLAG -528 48 V12P
FLAG -512 320 V12N
FLAG -160 192 V12N
FLAG -208 208 0
FLAG -288 384 0
FLAG -80 432 0
FLAG 432 192 Plot_Me_To_See_Loop_Gain
IOPIN 432 192 Out
FLAG 432 272 Plot_Me_To_See_Output_Current
IOPIN 432 272 Out
SYMBOL RoySym\\loopgainprobe 144 176 R0
SYMATTR InstName U1
SYMBOL Opamps\\LT1007 -160 96 R0
SYMATTR InstName U2
SYMBOL res -112 -16 R90
WINDOW 0 0 56 VBottom 0
WINDOW 3 32 56 VTop 0
SYMATTR InstName R1
SYMATTR Value 10k
SYMBOL res -368 240 R0
SYMATTR InstName R2
SYMATTR Value 1k
SYMBOL cap -256 272 R0
SYMATTR InstName C1
SYMATTR Value 333pF
SYMBOL voltage -560 64 R0
SYMATTR InstName V1
SYMATTR Value 12
SYMBOL voltage -560 176 R0
SYMATTR InstName V2
SYMATTR Value 12
SYMBOL voltage -80 336 R0
WINDOW 123 24 132 Left 0
WINDOW 39 0 0 Left 0
SYMATTR InstName V3
SYMATTR Value ""
SYMATTR Value2 AC 1
TEXT -72 -136 Left 0 !.ac dec 100 1 10Meg
