Version 4
SHEET 1 880 680
WIRE -448 -64 -1504 -64
WIRE -320 -64 -448 -64
WIRE -1504 -32 -1504 -64
WIRE -288 0 -1264 0
WIRE -48 0 -144 0
WIRE -288 16 -1056 16
WIRE -288 32 -800 32
WIRE -64 32 -144 32
WIRE -1264 64 -1264 0
WIRE -1056 64 -1056 16
WIRE -800 64 -800 32
WIRE -320 64 -320 -64
WIRE -288 64 -320 64
WIRE -1504 96 -1504 48
WIRE -288 96 -528 96
WIRE -96 96 -144 96
WIRE -288 112 -512 112
WIRE -288 128 -496 128
WIRE -112 128 -144 128
WIRE -1264 192 -1264 144
WIRE -1056 192 -1056 144
WIRE -1056 192 -1264 192
WIRE -800 192 -800 144
WIRE -800 192 -1056 192
WIRE -1056 208 -1056 192
WIRE -112 208 -112 128
WIRE -112 208 -400 208
WIRE -96 224 -96 96
WIRE -96 224 -384 224
WIRE -64 256 -64 32
WIRE -64 256 -352 256
WIRE -528 272 -528 96
WIRE -528 272 -1264 272
WIRE -48 272 -48 0
WIRE -48 272 -336 272
WIRE -512 288 -512 112
WIRE -512 288 -1056 288
WIRE -496 304 -496 128
WIRE -496 304 -800 304
WIRE -1264 336 -1264 272
WIRE -1056 336 -1056 288
WIRE -800 336 -800 304
WIRE -336 432 -336 272
WIRE -288 432 -336 432
WIRE -64 432 -128 432
WIRE -352 448 -352 256
WIRE -288 448 -352 448
WIRE -64 448 -128 448
WIRE -1264 464 -1264 416
WIRE -1056 464 -1056 416
WIRE -1056 464 -1264 464
WIRE -800 464 -800 416
WIRE -800 464 -1056 464
WIRE -64 464 -128 464
WIRE -1056 480 -1056 464
WIRE -448 480 -448 -64
WIRE -288 480 -448 480
WIRE -384 512 -384 224
WIRE -288 512 -384 512
WIRE -64 512 -128 512
WIRE -400 528 -400 208
WIRE -288 528 -400 528
WIRE -64 528 -128 528
WIRE -64 544 -128 544
FLAG -1056 208 0
FLAG -1056 480 0
FLAG -1504 96 0
SYMBOL voltage -1264 48 R0
WINDOW 123 0 0 Left 0
WINDOW 39 0 0 Left 0
SYMATTR InstName V1
SYMATTR Value SINE(0 1 1k)
SYMBOL voltage -1056 48 R0
WINDOW 123 0 0 Left 0
WINDOW 39 0 0 Left 0
SYMATTR InstName V2
SYMATTR Value SINE(0 1 1k 0 0 120)
SYMBOL voltage -800 48 R0
WINDOW 123 0 0 Left 0
WINDOW 39 0 0 Left 0
WINDOW 3 12 104 Left 0
SYMATTR Value SINE(0 1 1k 0 0 240)
SYMATTR InstName V3
SYMBOL current -1264 416 R180
WINDOW 0 24 88 Left 0
WINDOW 3 -136 -3 Left 0
WINDOW 123 0 0 Left 0
WINDOW 39 0 0 Left 0
SYMATTR InstName I1
SYMATTR Value SINE(0 1 1k)
SYMBOL current -1056 416 R180
WINDOW 0 24 88 Left 0
WINDOW 3 -208 -6 Left 0
WINDOW 123 0 0 Left 0
WINDOW 39 0 0 Left 0
SYMATTR InstName I2
SYMATTR Value SINE(0 1 1k 0 0 120)
SYMBOL current -800 416 R180
WINDOW 0 24 88 Left 0
WINDOW 3 -211 -6 Left 0
WINDOW 123 0 0 Left 0
WINDOW 39 0 0 Left 0
SYMATTR InstName I3
SYMATTR Value SINE(0 1 1k 0 0 240)
SYMBOL voltage -1504 -48 R0
WINDOW 123 0 0 Left 0
WINDOW 39 0 0 Left 0
SYMATTR InstName V4
SYMATTR Value SINE(0 1000 100)
SYMBOL abc-dq -208 80 R0
SYMATTR InstName X2
SYMBOL dq-abc -224 480 R0
SYMATTR InstName X1
TEXT -1488 -168 Left 0 !.tran 0 10m 0 10u startup
TEXT -1488 -136 Left 0 !.options plotwinsize=0 ; data compression off
