Version 4
SHEET 1 1956 1012
WIRE -320 -336 -384 -336
WIRE -32 -320 -80 -320
WIRE -384 -304 -384 -336
WIRE -80 -288 -80 -320
WIRE 320 -224 320 -256
WIRE 320 -224 272 -224
WIRE 272 -192 272 -224
WIRE 320 -176 320 -224
WIRE -320 -144 -384 -144
WIRE -384 -112 -384 -144
WIRE 1152 112 1152 80
WIRE -48 128 -48 96
WIRE 592 128 592 96
WIRE 1440 128 1248 128
WIRE 1488 128 1440 128
WIRE -304 144 -320 144
WIRE -144 144 -224 144
WIRE 304 144 288 144
WIRE 496 144 384 144
WIRE 1024 160 1008 160
WIRE 1136 160 1104 160
WIRE 32 176 -32 176
WIRE 80 176 32 176
WIRE 688 176 608 176
WIRE 736 176 688 176
WIRE 1440 176 1440 128
WIRE 1296 192 1248 192
WIRE 1344 192 1296 192
WIRE -256 208 -320 208
WIRE -144 208 -176 208
WIRE 368 208 288 208
WIRE 496 208 448 208
WIRE 32 224 32 176
WIRE 688 224 688 176
WIRE 1152 240 1152 208
WIRE 1296 240 1296 192
WIRE -48 256 -48 224
WIRE 592 256 592 224
WIRE 1184 288 1184 208
WIRE 1440 288 1440 256
WIRE -80 304 -80 224
WIRE 560 304 560 224
WIRE 32 336 32 304
WIRE 688 336 688 304
WIRE 1296 336 1296 320
FLAG -320 -336 sig1
IOPIN -320 -336 Out
FLAG -320 -144 sig2
IOPIN -320 -144 Out
FLAG -384 -224 0
FLAG -384 -32 0
FLAG 320 -336 V+
FLAG 320 -96 V-
FLAG 272 -192 0
FLAG -32 -320 CK
IOPIN -32 -320 Out
FLAG -80 -208 0
FLAG -80 304 CK
IOPIN -80 304 In
FLAG 560 304 CK
IOPIN 560 304 In
FLAG -48 96 V+
FLAG 592 96 V+
FLAG -48 256 V-
FLAG 592 256 V-
FLAG 32 336 0
FLAG 80 176 ioA
IOPIN 80 176 Out
FLAG 688 336 0
FLAG 736 176 ioB
IOPIN 736 176 Out
FLAG -320 144 sig1
IOPIN -320 144 In
FLAG -320 208 sig2
IOPIN -320 208 In
FLAG 288 144 sig1
IOPIN 288 144 In
FLAG 288 208 sig2
IOPIN 288 208 In
FLAG 1184 288 CK
IOPIN 1184 288 In
FLAG 1152 80 V+
FLAG 1152 240 V-
FLAG 1008 160 ioB
IOPIN 1008 160 In
FLAG 1296 336 0
FLAG 1344 192 oiB
IOPIN 1344 192 Out
FLAG 1440 288 0
FLAG 1488 128 oiA
IOPIN 1488 128 Out
SYMBOL voltage 320 -352 R0
WINDOW 3 27 91 Left 0
WINDOW 123 0 0 Left 0
WINDOW 39 0 0 Left 0
SYMATTR Value 5
SYMATTR InstName V1
SYMBOL voltage 320 -192 R0
WINDOW 123 0 0 Left 0
WINDOW 39 0 0 Left 0
SYMATTR InstName V2
SYMATTR Value 5
SYMBOL Misc\\signal -384 -320 R0
WINDOW 123 0 0 Left 0
WINDOW 39 0 0 Left 0
SYMATTR InstName V3
SYMATTR Value SINE(0 3 5K)
SYMBOL Misc\\signal -384 -128 R0
WINDOW 123 0 0 Left 0
WINDOW 39 0 0 Left 0
SYMATTR InstName V4
SYMATTR Value SINE(0 3 9K 0 0)
SYMBOL Misc\\signal -80 -304 R0
WINDOW 123 0 0 Left 0
WINDOW 39 0 0 Left 0
SYMATTR InstName V5
SYMATTR Value PULSE(-5 5 3m 0 0 3m 6m)
SYMBOL res 16 208 R0
SYMATTR InstName R1
SYMATTR Value 10k
SYMBOL res 672 208 R0
SYMATTR InstName R2
SYMATTR Value 10k
SYMBOL res -208 128 R90
WINDOW 0 0 56 VBottom 0
WINDOW 3 32 56 VTop 0
SYMATTR InstName R3
SYMATTR Value 1k
SYMBOL res -160 192 R90
WINDOW 0 0 56 VBottom 0
WINDOW 3 32 56 VTop 0
SYMATTR InstName R4
SYMATTR Value 1k
SYMBOL res 400 128 R90
WINDOW 0 0 56 VBottom 0
WINDOW 3 32 56 VTop 0
SYMATTR InstName R5
SYMATTR Value 1k
SYMBOL res 464 192 R90
WINDOW 0 0 56 VBottom 0
WINDOW 3 32 56 VTop 0
SYMATTR InstName R6
SYMATTR Value 1k
SYMBOL Add-ons\\switches\\4007_spdt-a -80 176 R0
SYMATTR InstName U1
SYMBOL Add-ons\\switches\\4007_spdt-b 560 192 R0
SYMATTR InstName U2
SYMBOL Add-ons\\switches\\4007_spdt-b 1184 176 M0
SYMATTR InstName U3
SYMBOL res 1280 224 R0
SYMATTR InstName R7
SYMATTR Value 10k
SYMBOL res 1424 160 R0
SYMATTR InstName R8
SYMATTR Value 10k
SYMBOL res 1120 144 R90
WINDOW 0 0 56 VBottom 0
WINDOW 3 32 56 VTop 0
SYMATTR InstName R9
SYMATTR Value 1k
TEXT 456 -288 Left 0 ;Here are two SPDT switch models and symbols based on a CD4007 application\ncalled "transfer switch" from the Intersil CD4007 datasheet. Although I tried to be \ncareful mapping the netlists to device pin connections, beware - the author is human. \nThese switch models have NOT been tested under real world conditions, please \nuse with care. These models are only simplified approximations, at best. Equivalent \nCD4007 pin connections to implement these switches are listed in the file \n4007spdt.sub.
TEXT -400 -432 Left 0 !.inc 4007spdt.sub
TEXT -400 -408 Left 0 !.tran 15m
