Version 4
SHEET 1 880 680
WIRE 320 -32 144 -32
WIRE 144 16 144 -32
WIRE 144 128 144 96
WIRE 320 128 320 -32
WIRE 272 208 144 208
WIRE 144 256 144 208
WIRE 144 368 144 336
WIRE 320 368 320 224
WIRE 320 368 144 368
WIRE 144 384 144 368
FLAG 144 384 0
FLAG 144 128 0
SYMBOL nmos 272 128 R0
SYMATTR InstName M1
SYMATTR Value ZXMN2A14F
SYMATTR Prefix X
SYMBOL voltage 144 240 R0
SYMATTR InstName V1
SYMATTR Value 1
SYMBOL voltage 144 0 R0
SYMATTR InstName V2
SYMATTR Value 5
TEXT 24 -88 Left 0 !.dc V1 0 4 .1
TEXT 24 -120 Left 0 !.include ZXMN2A14F.txt
