*
*DIODES_INC_SPICE_MODEL
*ORIGIN=DZSL_DPG
*SIMULATOR=PSPICE
*DATE=22/02/2005
*VERSION=2
*PIN_ORDER         D G S
*
.SUBCKT ZXMN2A14F 30 40 50
M1 6 20 5 5 Nmod L=1.16E-6 W=0.74
M2 5 20 5 6 Pmod L=1.3E-6 W=0.45
RG 4 2 3.5
RIN 2 5 1E12
RD 3 6 Rmod1 0.015
RL 3 5 3E12
C1 2 5 8.5E-12
C2 3 4 3.5E-12
D1 5 3  Dmod1
Egt1 20 2 21 5 1
Vgt1 5 22 1
Igt1 5 21 1
Rgt 21 22 Rmod2 1
LD 3 30 0.5E-9
LG 4 40 1.0E-9
LS 5 50 1.0E-9
.MODEL Nmod NMOS (LEVEL=3 TOX=4.5E-8 NSUB=5E16
+VTO=1.25 KP=10E-5 RS=.027  NFS=1E9 KAPPA=0.06 UO=650 IS=1E-15 N=10)
.MODEL Pmod PMOS (LEVEL=3 TOX=5.5E-8 NSUB=3.3E16
+TPG=-1 IS=1E-15 N=10)
.MODEL Dmod1 D (IS=1E-10 RS=.054 IKF=0.04 TRS1=1.5e-3
+CJO=600e-12  BV=23)
.MODEL Rmod1 RES (TC1=8.2e-3 TC2=2.3E-5)
.MODEL Rmod2 RES (TC1=-3E-4 TC2=0E-6)
.ENDS ZXMN2A14F
*
*$