Version 4
SHEET 1 880 680
WIRE -32 0 -80 0
WIRE 192 0 -32 0
WIRE 432 0 192 0
WIRE 432 16 432 0
WIRE -32 32 -32 0
WIRE -32 32 -80 32
WIRE -16 32 -32 32
WIRE 64 32 48 32
WIRE 256 32 64 32
WIRE 288 32 256 32
WIRE 400 32 368 32
WIRE 608 32 512 32
WIRE 736 32 672 32
WIRE 64 64 64 32
WIRE 96 64 64 64
WIRE 192 64 192 0
WIRE 192 64 160 64
WIRE 512 64 512 32
WIRE 560 64 512 64
WIRE 640 64 624 64
WIRE 736 64 736 32
WIRE 736 64 640 64
WIRE 256 80 256 32
WIRE 304 80 256 80
WIRE 400 80 400 32
WIRE 400 80 368 80
WIRE 512 80 512 64
WIRE 640 80 640 64
WIRE 736 80 736 64
WIRE -32 96 -80 96
WIRE 16 96 -32 96
WIRE 144 96 96 96
WIRE 176 96 144 96
WIRE 400 96 400 80
WIRE 400 96 256 96
WIRE 432 96 400 96
WIRE 144 112 144 96
WIRE 256 112 256 96
WIRE 272 112 256 112
WIRE 368 112 352 112
WIRE -32 128 -32 96
WIRE -32 128 -80 128
WIRE 144 160 -80 160
WIRE 176 160 144 160
WIRE 288 160 256 160
WIRE 400 160 352 160
WIRE 432 160 400 160
WIRE 144 176 144 160
WIRE 512 176 512 160
WIRE 640 176 640 144
WIRE 640 176 512 176
WIRE 736 176 736 160
WIRE 736 176 640 176
WIRE 80 192 -80 192
WIRE 80 208 80 192
WIRE 304 208 288 208
WIRE 400 208 400 160
WIRE 400 208 384 208
WIRE 640 208 640 176
WIRE 736 208 736 176
WIRE -64 224 -80 224
WIRE -48 256 -80 256
WIRE 208 256 -48 256
WIRE 288 256 288 208
WIRE 288 256 272 256
WIRE 432 256 432 240
WIRE 432 256 320 256
WIRE 432 272 432 256
WIRE 144 288 144 240
WIRE 144 288 -80 288
WIRE 320 288 320 256
WIRE 320 288 144 288
WIRE 640 304 640 288
WIRE 736 304 736 272
WIRE 736 304 640 304
WIRE -32 320 -80 320
WIRE 80 320 80 272
WIRE 80 320 48 320
WIRE 224 320 208 320
WIRE 352 320 288 320
WIRE 640 336 640 304
WIRE 208 352 208 320
WIRE 208 352 -80 352
WIRE 256 352 208 352
WIRE 352 352 352 320
WIRE 352 352 320 352
WIRE 432 352 352 352
WIRE 208 368 208 352
WIRE 144 432 144 288
WIRE 208 432 144 432
WIRE 144 448 144 432
FLAG 144 448 0
FLAG 144 112 0
FLAG 640 336 0
FLAG 368 112 x
FLAG -48 256 x
SYMBOL polcap 192 432 M180
WINDOW 0 24 57 Left 0
WINDOW 3 24 8 Left 0
SYMATTR InstName C1
SYMATTR Value 10µ
SYMATTR Description Capacitor
SYMATTR Type cap
SYMATTR SpiceLine V=63 Irms=170m Rser=1 Lser=0 mfg="Nichicon" pn="UPG1J100MPH" type="Al electrolytic"
SYMBOL diode 256 368 R270
WINDOW 0 -36 32 VTop 0
WINDOW 3 0 32 Invisible 0
SYMATTR InstName D1
SYMATTR Value MURS120
SYMBOL ind2 416 256 R0
WINDOW 0 -30 35 Left 0
WINDOW 3 -55 62 Left 0
SYMATTR InstName L3
SYMATTR Value 240µ
SYMATTR SpiceLine Rser=0.1 Cpar=2p
SYMBOL ind2 416 256 M180
WINDOW 0 -29 34 Left 0
WINDOW 3 -49 13 Left 0
SYMATTR InstName L2
SYMATTR Value 5µ6
SYMATTR SpiceLine Rser=10m Cpar=1p
SYMBOL zener 288 176 R270
WINDOW 0 16 74 VTop 0
WINDOW 3 -4 32 Invisible 0
SYMATTR InstName Dz7
SYMATTR Value 1N755
SYMBOL res 272 144 R90
WINDOW 0 17 109 VBottom 0
WINDOW 3 -10 -1 VTop 0
SYMATTR InstName R2
SYMATTR Value 1k5
SYMBOL cap 128 176 R0
SYMATTR InstName C2
SYMATTR Value 39n
SYMBOL res 400 192 R90
WINDOW 0 17 108 VBottom 0
WINDOW 3 -11 20 VTop 0
SYMATTR InstName R3
SYMATTR Value 47
SYMBOL cap 272 240 R90
WINDOW 0 16 55 VBottom 0
WINDOW 3 -10 4 VTop 0
SYMATTR InstName C3
SYMATTR Value 33n
SYMBOL cap -48 32 R0
WINDOW 0 -22 13 Left 0
WINDOW 3 22 48 Left 0
SYMATTR InstName C4
SYMATTR Value 470p
SYMBOL cap 64 208 R0
WINDOW 0 -52 3 Left 0
WINDOW 3 -59 33 Left 0
SYMATTR InstName C5
SYMATTR Value 330p
SYMBOL res 64 304 R90
WINDOW 0 16 109 VBottom 0
WINDOW 3 -11 12 VTop 0
SYMATTR InstName R4
SYMATTR Value 36k
SYMBOL res 112 80 R90
WINDOW 0 5 64 VBottom 0
WINDOW 3 32 63 VTop 0
SYMATTR InstName R6
SYMATTR Value .56
SYMBOL cap 288 304 R90
WINDOW 0 16 55 VBottom 0
WINDOW 3 -12 -6 VTop 0
SYMATTR InstName C6
SYMATTR Value 330p
SYMBOL ind2 416 0 R0
WINDOW 0 -60 -14 Left 0
WINDOW 3 -27 -14 Left 0
SYMATTR InstName L1
SYMATTR Value 410µ
SYMATTR SpiceLine Rser=1 Rpar=1e5
SYMBOL voltage 272 96 R90
WINDOW 0 -3 115 VBottom 0
WINDOW 3 0 56 VTop 0
WINDOW 123 0 0 Left 0
SYMATTR InstName Vcc
SYMATTR Value 150
SYMATTR SpiceLine Rser=1
SYMBOL diode 560 80 R270
WINDOW 0 15 -3 VTop 0
WINDOW 3 -79 219 Invisible 0
SYMATTR InstName D3
SYMATTR Value MURS320
SYMBOL cap 672 16 R90
WINDOW 0 15 63 VBottom 0
WINDOW 3 -12 3 VTop 0
SYMATTR InstName Ce1
SYMATTR Value 1n
SYMBOL polcap 624 80 R0
WINDOW 3 24 64 Left 0
WINDOW 0 24 14 Left 0
SYMATTR Value 22µ
SYMATTR InstName C7
SYMATTR Description Capacitor
SYMATTR Type cap
SYMATTR SpiceLine V=200 Irms=500m Rser=0.1 Lser=0
SYMBOL ind2 528 176 R180
WINDOW 0 -34 73 Left 0
WINDOW 3 -61 38 Left 0
SYMATTR InstName L4
SYMATTR Value 680µ
SYMATTR SpiceLine Rser=1 Cpar=5p
SYMBOL res 720 64 R0
SYMATTR InstName RL
SYMATTR Value 500
SYMBOL res 624 192 R0
WINDOW 0 -46 30 Left 0
WINDOW 3 -42 63 Left 0
SYMATTR InstName Rais
SYMATTR Value 1e6
SYMBOL res 368 96 R90
WINDOW 0 29 -32 VBottom 0
WINDOW 3 26 -39 VTop 0
SYMATTR InstName R7
SYMATTR Value 2e6
SYMBOL diode -16 16 M90
WINDOW 0 16 3 VBottom 0
WINDOW 3 32 32 Invisible 0
SYMATTR InstName D4
SYMATTR Value BYW96E
SYMBOL res 384 16 R90
WINDOW 0 16 99 VBottom 0
WINDOW 3 -12 14 VTop 0
SYMATTR InstName R1
SYMATTR Value 47k
SYMBOL cap 368 64 R90
WINDOW 0 16 61 VBottom 0
WINDOW 3 -11 4 VTop 0
SYMATTR InstName C8
SYMATTR Value 22n
SYMBOL cap 160 48 R90
WINDOW 0 16 61 VBottom 0
WINDOW 3 -11 -6 VTop 0
SYMATTR InstName C9
SYMATTR Value 470p
SYMBOL Stk730_090 -112 176 R270
SYMATTR InstName X1
SYMBOL cap 720 208 R0
SYMATTR InstName C10
SYMATTR Value 1n
TEXT 472 24 VRight 0 !K1 L1 L2 L3 L4 .99
TEXT -160 400 Left 0 !.tran 5m
