Version 4
SHEET 1 1404 932
WIRE 192 -1392 112 -1392
WIRE 112 -1376 112 -1392
WIRE 304 -1312 272 -1312
WIRE -16 -1296 -48 -1296
WIRE 528 -1296 496 -1296
WIRE 304 -1280 272 -1280
WIRE -16 -1264 -48 -1264
WIRE -304 -1232 -304 -1280
WIRE -16 -1232 -48 -1232
WIRE -320 -1216 -336 -1216
WIRE -16 -1200 -48 -1200
WIRE 192 -1200 192 -1392
WIRE 448 -1200 192 -1200
WIRE -304 -1168 -304 -1232
WIRE -16 -1168 -48 -1168
WIRE -320 -1152 -336 -1152
WIRE -16 -1136 -48 -1136
WIRE -304 -1104 -304 -1168
WIRE -16 -1104 -48 -1104
WIRE 224 -1104 192 -1104
WIRE -320 -1088 -336 -1088
WIRE -848 -1072 -880 -1072
WIRE -592 -1072 -624 -1072
WIRE -576 -1072 -592 -1072
WIRE -16 -1072 -48 -1072
WIRE 224 -1072 192 -1072
WIRE -848 -1040 -880 -1040
WIRE -592 -1040 -624 -1040
WIRE -576 -1040 -592 -1040
WIRE -304 -1040 -304 -1104
WIRE -16 -1040 -48 -1040
WIRE 224 -1040 192 -1040
WIRE -320 -1024 -336 -1024
WIRE -848 -1008 -880 -1008
WIRE -592 -1008 -624 -1008
WIRE -576 -1008 -592 -1008
WIRE -16 -1008 -48 -1008
WIRE 224 -1008 192 -1008
WIRE -848 -976 -880 -976
WIRE -592 -976 -624 -976
WIRE -576 -976 -592 -976
WIRE -16 -976 -48 -976
WIRE 224 -976 192 -976
WIRE -848 -944 -880 -944
WIRE -592 -944 -624 -944
WIRE -576 -944 -592 -944
WIRE -16 -944 -48 -944
WIRE 224 -944 192 -944
WIRE -848 -912 -880 -912
WIRE -592 -912 -624 -912
WIRE -576 -912 -592 -912
WIRE -16 -912 -48 -912
WIRE 224 -912 192 -912
WIRE -848 -880 -880 -880
WIRE -592 -880 -624 -880
WIRE -576 -880 -592 -880
WIRE -16 -880 -48 -880
WIRE 224 -880 192 -880
WIRE -848 -848 -880 -848
WIRE -592 -848 -624 -848
WIRE -576 -848 -592 -848
WIRE -16 -848 -48 -848
WIRE 224 -848 192 -848
WIRE -848 -816 -880 -816
WIRE -592 -816 -624 -816
WIRE -576 -816 -592 -816
WIRE -16 -816 -48 -816
WIRE 224 -816 192 -816
WIRE -848 -784 -880 -784
WIRE -592 -784 -624 -784
WIRE -576 -784 -592 -784
WIRE -16 -784 -48 -784
WIRE 224 -784 192 -784
WIRE -848 -752 -880 -752
WIRE -592 -752 -624 -752
WIRE -576 -752 -592 -752
WIRE -352 -752 -368 -752
WIRE -16 -752 -48 -752
WIRE 224 -752 192 -752
WIRE -848 -720 -880 -720
WIRE -592 -720 -624 -720
WIRE -576 -720 -592 -720
WIRE -16 -720 -48 -720
WIRE -16 -688 -48 -688
WIRE -16 -656 -48 -656
WIRE -16 -624 -48 -624
WIRE -16 -592 -48 -592
WIRE -16 -560 -48 -560
FLAG -736 -672 Clock
IOPIN -736 -672 In
FLAG 48 -1376 VDD
FLAG -880 -944 B7
IOPIN -880 -944 In
FLAG -880 -912 B6
IOPIN -880 -912 In
FLAG -880 -880 B5
IOPIN -880 -880 In
FLAG -880 -848 B4
IOPIN -880 -848 In
FLAG -880 -816 B3
IOPIN -880 -816 In
FLAG -880 -784 B2
IOPIN -880 -784 In
FLAG -880 -752 B1
IOPIN -880 -752 In
FLAG -880 -720 B0
IOPIN -880 -720 In
FLAG -592 -912 B6D
FLAG -592 -880 B5D
FLAG -592 -848 B4D
FLAG -592 -816 B3D
FLAG -592 -784 B2D
FLAG -592 -752 B1D
FLAG -592 -720 B0D
FLAG 224 -976 S7
IOPIN 224 -976 Out
FLAG 224 -944 S6
IOPIN 224 -944 Out
FLAG 224 -912 S5
IOPIN 224 -912 Out
FLAG 224 -880 S4
IOPIN 224 -880 Out
FLAG 224 -848 S3
IOPIN 224 -848 Out
FLAG 224 -816 S2
IOPIN 224 -816 Out
FLAG 224 -784 S1
IOPIN 224 -784 Out
FLAG 224 -752 S0
IOPIN 224 -752 Out
FLAG 224 -1008 S8
IOPIN 224 -1008 Out
FLAG 112 -496 VDD
FLAG -464 -1008 VDD
FLAG -48 -1008 B7
FLAG -48 -944 B6
FLAG -48 -880 B5
FLAG -48 -816 B4
FLAG -48 -752 B3
FLAG -48 -688 B2
FLAG -48 -624 B1
FLAG -48 -560 B0
FLAG -352 -720 B0Di
FLAG -48 -592 B0Di
FLAG -48 -656 B1Di
FLAG -352 -752 B1Di
FLAG -352 -784 B2Di
FLAG -48 -720 B2Di
FLAG -352 -816 B3Di
FLAG -48 -784 B3Di
FLAG -352 -848 B4Di
FLAG -48 -848 B4Di
FLAG -352 -880 B5Di
FLAG -48 -912 B5Di
FLAG -352 -912 B6Di
FLAG -352 -944 B7Di
FLAG -48 -1040 B7Di
FLAG -48 -976 B6Di
FLAG -880 -1040 B10
IOPIN -880 -1040 In
FLAG -880 -1008 B9
IOPIN -880 -1008 In
FLAG -880 -976 B8
IOPIN -880 -976 In
FLAG -592 -1040 B10D
FLAG -592 -1008 B9D
FLAG -592 -976 B8D
FLAG -592 -944 B7D
FLAG -592 -1072 B11D
FLAG -336 -1216 B11D
FLAG -336 -1152 B10D
FLAG -336 -1088 B9D
FLAG -336 -1024 B8D
FLAG -272 -1024 B8Di
FLAG -272 -1088 B9Di
FLAG -272 -1152 B10Di
FLAG -272 -1216 B11Di
FLAG 224 -1072 S10
IOPIN 224 -1072 Out
FLAG 224 -1040 S9
IOPIN 224 -1040 Out
FLAG 224 -1104 S11
IOPIN 224 -1104 Out
FLAG -48 -1264 B11
FLAG -48 -1200 B10
FLAG -48 -1136 B9
FLAG -48 -1072 B8
FLAG -48 -1104 B8Di
FLAG -48 -1168 B9Di
FLAG -48 -1296 B11Di
FLAG -48 -1232 B10Di
FLAG -736 -1136 VDD
IOPIN -736 -1136 In
FLAG -880 -1072 B11
IOPIN -880 -1072 In
FLAG -304 -1280 VDD
FLAG 528 -1296 S12
IOPIN 528 -1296 Out
FLAG 272 -1280 B11
FLAG 272 -1312 B11Di
FLAG 352 -1392 VDD
SYMBOL 12_bit_register -816 -704 R0
SYMATTR InstName X1
SYMBOL 12_bit_adder 16 -528 R0
SYMATTR InstName X9
SYMBOL 8_bit_inverter -544 -688 R0
SYMATTR InstName X2
SYMBOL inverter -320 -1216 R0
SYMATTR InstName X3
SYMBOL inverter -320 -1152 R0
SYMATTR InstName X4
SYMBOL inverter -320 -1088 R0
SYMATTR InstName X5
SYMBOL inverter -320 -1024 R0
SYMATTR InstName X6
SYMBOL Adderbit 320 -1216 R0
SYMATTR InstName X7
