Version 4
SHEET 1 1324 932
WIRE 240 -416 160 -416
WIRE -32 -336 -64 -336
WIRE 16 -336 -32 -336
WIRE 240 -320 208 -320
WIRE -288 -304 -320 -304
WIRE 16 -304 -16 -304
FLAG -176 -384 VDD
IOPIN -176 -384 In
FLAG -176 -224 clock
IOPIN -176 -224 In
FLAG 64 -416 VDD
FLAG -320 -304 B0
IOPIN -320 -304 In
FLAG -32 -336 B0D
FLAG 240 -416 S1
IOPIN 240 -416 Out
FLAG 240 -320 S0
IOPIN 240 -320 Out
FLAG -16 -304 B0
FLAG 160 -224 0
SYMBOL DFF -256 -256 R0
SYMATTR InstName X3
SYMBOL Adderbit 32 -240 R0
SYMATTR InstName X1
TEXT -80 -168 Left 0 ;Implements the function 1+z^-1\nSee Figure 1.16
