Version 4
SHEET 1 880 680
WIRE -320 64 -320 32
WIRE -320 128 -320 96
WIRE -320 224 -320 208
WIRE -320 240 -320 224
WIRE -320 352 -320 320
WIRE -304 32 -320 32
WIRE -288 224 -320 224
WIRE -288 240 -288 224
WIRE -256 64 -320 64
WIRE -256 128 -256 64
WIRE -256 224 -288 224
WIRE -256 224 -256 208
WIRE -176 32 -224 32
WIRE -176 112 -176 32
WIRE -176 432 -176 176
WIRE -128 240 -128 192
WIRE -128 432 -176 432
WIRE -128 432 -128 304
WIRE -48 192 -128 192
WIRE -48 192 -48 96
WIRE -48 304 -48 224
WIRE -48 336 -48 304
WIRE -48 432 -128 432
WIRE -48 432 -48 416
WIRE -48 448 -48 432
WIRE -32 96 -48 96
WIRE -16 192 -48 192
WIRE -16 224 -48 224
WIRE -16 304 -48 304
WIRE 0 32 -176 32
WIRE 0 48 0 32
WIRE 80 96 64 96
WIRE 80 208 48 208
WIRE 80 208 80 96
WIRE 80 304 64 304
WIRE 80 304 80 208
FLAG -48 448 0
FLAG 16 176 V+
FLAG 16 240 V-
FLAG -288 240 0
FLAG -320 96 V+
FLAG -320 352 V-
SYMBOL Robertugo\\OPAMP5 16 144 R0
WINDOW 0 -26 64 Left 0
WINDOW 38 -101 66 Left 0
SYMATTR InstName U1
SYMATTR SpiceModel TL051
SYMBOL pjf 64 48 R90
WINDOW 0 32 37 VRight 0
WINDOW 3 32 80 VRight 0
SYMATTR InstName J1
SYMATTR Value 2N5461
SYMBOL res -64 320 R0
WINDOW 0 -53 35 Left 0
WINDOW 3 -53 76 Left 0
SYMATTR InstName R1
SYMATTR Value 1K
SYMATTR SpiceLine tol=1 pwr=0.1
SYMBOL res 80 288 R90
WINDOW 0 11 105 VBottom 0
WINDOW 3 37 56 VTop 0
SYMATTR InstName R2
SYMATTR Value 10K
SYMATTR SpiceLine tol=1 pwr=0.1
SYMBOL cap -144 240 R0
SYMATTR InstName C1
SYMATTR Value 100n
SYMBOL cap -192 112 R0
SYMATTR InstName C2
SYMATTR Value 1n
SYMBOL voltage -320 112 R0
WINDOW 0 -33 6 Left 0
WINDOW 3 -14 58 Left 0
WINDOW 123 0 0 Left 0
SYMATTR InstName V1
SYMATTR Value 5
SYMATTR SpiceLine Rser=.1
SYMBOL voltage -320 224 R0
WINDOW 0 -32 109 Left 0
WINDOW 3 -14 58 Left 0
WINDOW 123 0 0 Left 0
SYMATTR InstName V2
SYMATTR Value 5
SYMATTR SpiceLine Rser=.1
SYMBOL voltage -256 112 R0
WINDOW 0 -16 61 Left 0
WINDOW 3 24 104 Invisible 0
WINDOW 123 0 0 Left 0
WINDOW 39 0 0 Left 0
SYMATTR InstName Vc1
SYMATTR Value PWL(0 0 0.199m 0 0.2m 1 0.399m 1 0.4m 2 0.599m 2 0.6m 3 0.799m 3 0.8m 4 0.999m 4 1m 5 1.2m 5)
SYMBOL res -208 16 R90
WINDOW 0 37 76 VRight 0
WINDOW 3 43 -5 VRight 0
SYMATTR InstName R3
SYMATTR Value 470K
SYMATTR SpiceLine tol=1 pwr=0.1
TEXT -378 418 Left 0 !.tran 0 1m5 0 startup
TEXT -384 456 Left 0 !.option noopiter
