Version 4
SHEET 1 880 680
WIRE -128 64 -176 64
WIRE 0 64 -64 64
WIRE 48 64 0 64
WIRE 256 64 128 64
WIRE 0 96 0 64
WIRE 0 96 -96 96
WIRE 144 128 80 128
WIRE 256 128 256 64
WIRE 256 128 224 128
WIRE -176 160 -176 64
WIRE -128 160 -176 160
WIRE 0 160 -128 160
WIRE 16 160 0 160
WIRE -176 176 -176 160
WIRE -128 192 -128 160
WIRE -112 192 -128 192
WIRE 0 208 0 160
WIRE -352 224 -384 224
WIRE -240 224 -272 224
WIRE 128 224 80 224
WIRE 144 224 128 224
WIRE -384 256 -384 224
WIRE 128 256 128 224
WIRE 256 256 256 128
WIRE -176 288 -176 272
WIRE 80 320 48 320
WIRE 48 336 48 320
WIRE -384 368 -384 336
WIRE -176 368 -384 368
WIRE 0 368 0 272
WIRE 0 368 -176 368
WIRE 80 368 80 320
WIRE 80 368 0 368
WIRE 128 368 128 336
WIRE 128 368 80 368
WIRE 256 368 256 336
WIRE 256 368 128 368
FLAG 48 336 0
FLAG -112 192 Ramp
IOPIN -112 192 Out
FLAG 144 224 Pul
IOPIN 144 224 Out
SYMBOL res 128 144 R270
WINDOW 0 32 56 VTop 0
WINDOW 3 0 56 VBottom 0
SYMATTR InstName R1
SYMATTR Value 470
SYMBOL res 112 240 R0
WINDOW 0 38 46 Left 0
SYMATTR InstName R2
SYMATTR Value 100
SYMBOL cap -16 208 R0
WINDOW 0 41 34 Left 0
SYMATTR InstName Ct
SYMATTR Value 47n
SYMBOL npn2 -240 176 R0
WINDOW 0 -1 7 Left 0
WINDOW 3 25 47 Left 0
SYMATTR InstName Q1
SYMATTR Value 2N3904
SYMBOL res -160 384 R180
WINDOW 0 -29 65 Left 0
WINDOW 3 -36 31 Left 0
SYMATTR InstName R3
SYMATTR Value 100
SYMBOL Robertugo\\Pote -32 80 M270
WINDOW 123 -1 6 VCenter 0
WINDOW 0 30 128 VLeft 0
WINDOW 3 30 29 VLeft 0
SYMATTR Value2 Set=1
SYMATTR InstName P1
SYMATTR Value Rt=1e5
SYMBOL res 144 48 R90
WINDOW 0 16 104 VBottom 0
WINDOW 3 -10 14 VTop 0
SYMATTR InstName R4
SYMATTR Value 1k
SYMBOL voltage 256 240 R0
WINDOW 0 -45 3 Left 0
WINDOW 3 -13 59 Left 0
SYMATTR InstName Vcc
SYMATTR Value 12
SYMBOL res -256 208 R90
WINDOW 0 0 56 VBottom 0
WINDOW 3 32 56 VTop 0
SYMATTR InstName R5
SYMATTR Value 1k
SYMBOL voltage -384 240 R0
WINDOW 0 -25 57 Left 0
WINDOW 3 3 112 Left 0
WINDOW 123 0 0 Left 0
WINDOW 39 0 0 Left 0
SYMATTR InstName Vctr
SYMATTR Value PULSE(0 .6 0 1)
SYMBOL Miscel\\nujt 32 128 R0
WINDOW 0 6 -2 Left 0
SYMATTR InstName Ujt
TEXT -408 72 Left 0 !.Tran 1
