Version 4
SHEET 1 1032 680
WIRE -224 -64 -272 -64
WIRE -96 -64 -144 -64
WIRE 64 -64 -96 -64
WIRE 288 -64 144 -64
WIRE -272 -32 -272 -64
WIRE 64 32 48 32
WIRE 224 32 144 32
WIRE 0 80 0 48
WIRE 48 96 48 32
WIRE 144 112 80 112
WIRE 224 112 224 32
WIRE 224 112 208 112
WIRE -96 144 -96 -64
WIRE -64 144 -96 144
WIRE 288 192 288 -64
WIRE 288 192 160 192
WIRE 320 192 288 192
WIRE 448 192 432 192
WIRE 544 192 448 192
WIRE -304 240 -352 240
WIRE -224 240 -304 240
WIRE -64 240 -144 240
WIRE 448 240 448 192
WIRE 544 240 544 192
WIRE -624 256 -624 224
WIRE -496 256 -496 224
WIRE -352 272 -352 240
WIRE 112 272 112 256
WIRE 160 272 112 272
WIRE 288 272 288 192
WIRE 288 272 240 272
WIRE 0 320 0 304
WIRE 0 320 -48 320
WIRE 448 352 448 320
WIRE 544 352 544 304
WIRE -624 368 -624 336
WIRE -496 368 -496 336
WIRE -352 368 -352 352
WIRE -48 368 -48 320
WIRE -32 368 -48 368
WIRE 80 368 80 272
WIRE 80 368 32 368
WIRE 144 368 80 368
WIRE 224 368 208 368
WIRE -48 432 -48 368
WIRE 48 448 48 288
WIRE 64 448 48 448
WIRE 224 448 224 368
WIRE 224 448 144 448
FLAG -352 368 0
FLAG -496 368 0
FLAG -624 368 0
FLAG -624 224 V+
FLAG -496 224 V-
FLAG 448 352 0
FLAG -304 240 in
FLAG 320 192 out
IOPIN 320 192 Out
FLAG -272 -32 0
FLAG 544 352 0
FLAG -48 432 V-
FLAG 0 48 V+
FLAG 432 192 out
SYMBOL res 432 224 R0
SYMATTR InstName Rl
SYMATTR Value 2k
SYMBOL res 48 -48 R270
WINDOW 0 32 56 VTop 0
WINDOW 3 0 56 VBottom 0
SYMATTR InstName R2
SYMATTR Value 100k
SYMBOL voltage -352 256 R0
WINDOW 123 0 0 Left 0
WINDOW 39 26 97 Left 0
WINDOW 3 -142 166 Left 0
SYMATTR Value PULSE(-2.5 2.5 0 10n 10n 500u 1000u)
SYMATTR InstName V1
SYMBOL voltage -624 240 R0
SYMATTR InstName V2
SYMATTR Value 150
SYMBOL voltage -496 240 R0
SYMATTR InstName V3
SYMATTR Value -150
SYMBOL res -240 256 R270
WINDOW 0 32 56 VTop 0
WINDOW 3 0 56 VBottom 0
SYMATTR InstName Rg
SYMATTR Value 50
SYMBOL res -240 -48 R270
WINDOW 0 32 56 VTop 0
WINDOW 3 0 56 VBottom 0
SYMATTR InstName R1
SYMATTR Value 2k
SYMBOL cap 528 240 R0
SYMATTR InstName Cl
SYMATTR Value 0p
SYMBOL res 144 288 R270
WINDOW 0 32 56 VTop 0
WINDOW 3 0 56 VBottom 0
SYMATTR InstName Rlim
SYMATTR Value 6.8
SYMBOL res 48 464 R270
WINDOW 0 32 56 VTop 0
WINDOW 3 0 56 VBottom 0
SYMATTR InstName Rc2
SYMATTR Value 3.3k
SYMBOL cap 144 384 R270
WINDOW 0 32 32 VTop 0
WINDOW 3 0 32 VBottom 0
SYMATTR InstName Cc2
SYMATTR Value 10p
SYMBOL res 48 48 R270
WINDOW 0 32 56 VTop 0
WINDOW 3 0 56 VBottom 0
SYMATTR InstName Rc1
SYMATTR Value 3.3k
SYMBOL cap 144 128 R270
WINDOW 0 32 32 VTop 0
WINDOW 3 0 32 VBottom 0
SYMATTR InstName Cc1
SYMATTR Value 10p
SYMBOL cap -32 384 R270
WINDOW 0 32 32 VTop 0
WINDOW 3 0 32 VBottom 0
SYMATTR InstName Cc3
SYMATTR Value 33p
SYMBOL PA86 32 192 R0
SYMATTR InstName U1
TEXT -640 -72 Left 0 !.tran 0 2m 0 1u startup
TEXT -640 -40 Left 0 !.options plotwinsize=0
TEXT 240 312 Left 0 ;Rlim=0.7/Imax
TEXT -120 -264 Left 0 ;Test Circuit Apex PA86\n \nV=1+R2/R1 = 51\n \nhttp://www.cirrus.com/en/products/apex/design_software.html
TEXT -640 0 Left 0 !.options gmin=1e-10
TEXT 472 168 Left 0 ;LOAD
TEXT -632 -256 Left 0 ;Changes in the model file PA86.lib\nAll lines using a R-model have been changed.\nR47 20 12 2E6 R47M \n-->\nR47 20 12 R47M 2E6
