Version 4
SHEET 1 904 2184
SYMBOL npn 256 176 R0
SYMATTR InstName Q1
SYMATTR Value BFQ17
SYMATTR Prefix X
SYMBOL npn -304 176 R0
SYMATTR InstName Q2
TEXT -344 712 Left 0 !* Filename: BFQ17_SPICE.PRM\n* BFQ17 SPICE MODEL\n* PHILIPS SEMICONDUCTORS\n* Date : September 1995\n*\n* PACKAGE : SOT89 DIE MODEL : BFW16A\n* 1: COLLECTOR; 2: BASE; 3: EMITTER\n.SUBCKT BFQ17 1 2 3\nQ1 6 5 7 7 BFW16A\n* SOT89 parasitic model\nLb 4 5 1.2n\nLe 7 8 1.2n\nL1 2 4 1n\nL2 1 6 .01n\nL3 3 8 1n\nCcb 4 6 150f\nCbe 4 8 16f\n*\n* PHILIPS SEMICONDUCTORS Version: 3.0\n* Filename: BFW16A.PRM Date:March 1993\n*\n.MODEL BFW16A NPN\n+ IS = 2.38723E-015\n+ BF = 8.60000E+001\n+ NF = 9.92505E-001\n+ VAF = 4.80000E+001\n+ IKF = 8.00000E-001\n+ ISE = 5.46670E-011\n+ NE = 2.15243E+000\n+ BR = 8.00000E+000\n+ NR = 9.86531E-001\n+ VAR = 1.00990E+001\n+ IKR = 7.53676E-002\n+ ISC = 9.71537E-015\n+ NC = 1.17989E+000\n+ RB = 2.00000E+000\n+ IRB = 1.00000E-006\n+ RBM = 2.00000E+000\n+ RE = 5.00000E-002\n+ RC = 7.65100E-001\n+ EG = 1.11000E+000\n+ XTI = 3.00000E+000\n+ CJE = 8.13827E-012\n+ VJE = 6.00000E-001\n+ MJE = 2.72002E-001\n+ TF = 8.77730E-011\n+ XTF = 2.43638E+000\n+ VTF = 6.41428E-001\n+ ITF = 1.77271E-001\n+ PTF = 1.00000E+001\n+ CJC = 5.37854E-012\n+ VJC = 5.68500E-001\n.ENDS
TEXT -448 536 Left 0 ;.include bfq17.sub
TEXT -448 424 Left 0 ;Put the model(.SUBCKT) in a file named "bfq17.sub".\nThen make the line  ".include bfq17.sub"  to a SPICE directive by <Ctrl>+right-mouse-click on this line.\nThe complete subcircuit definition have to be removed from this schematic after a file is used.
TEXT -432 48 Left 0 ;<Ctrl>+right-mouse-click   then change  QN to X.\nChange also the value NPN to the subcircuit model name BFQ17.
TEXT -432 -72 Left 0 ;Using The Normal Transistor Symbol For A Subcircuit.
TEXT 296 128 Left 0 ;Subcircuit
TEXT -288 128 Left 0 ;Model
LINE Normal 160 224 -48 224
LINE Normal 112 208 160 224
LINE Normal 112 240 160 224
