* Library was created by AVX, version 1.1

* The library includes all available AVX capacitors components from Tantalum division.
* There are included TAJ, TPS, THJ, TRJ, TPM and TAC Tantalum capacitors.
 
* NOTICE: Specifications are subject to change without notice.  
* Contact your nearest AVX Sales Office for the latest specifications.  
* All statements, information and data given herein are believed to be accurate 
* and reliable, 
* but are presented without guarantee, warranty, or responsibility of any kind, 
* expressed or implied.  
* Statements or suggestions concerning possible use of our product are made 
* without responsibility or warranty that any such use is free of patent 
* infringement and are not recommendations to infringe any patent.
* The user should not assume that all safety measures are indicated or that 
* other measures are indicated or that measures may not be required.  
* Specifications are typical and may not apply to all applications.

.SUBCKT THJA104K035R 1 9

*parasitic inductance
Lesl 1 2 1.800000e-009
Rels 1 2 10

*leakage current & reverse bias effects
Rp 2 9 1.100000e+009
Dp 9 2 DFWD

*RC-ladder model of frequency effects
R1 2 3 RMOD1 5.596420e+001
C1 2 3 CMOD1 8.643055e-006
R2 3 4 RMOD2 1.100000e-004
C2 4 9 CMOD2 3.229476e-009
R3 4 5 RMOD3 1.047093e+001
C3 5 9 CMOD3 6.458951e-009
R4 5 6 RMOD4 1.100000e-004
C4 6 9 CMOD4 1.291790e-008
R5 6 7 RMOD5 1.100000e-004
C5 7 9 CMOD5 2.583581e-008
R6 7 8 RMOD6 3.022301e+001
C6 8 9 CMOD6 5.167161e-008

.MODEL CMOD1 CAP (T_MEASURED=25 TC1=1.463615e-003 TC2=-4.147800e-005)
.MODEL CMOD2 CAP (T_MEASURED=25 TC1=3.749220e-004 TC2=2.806000e-006)
.MODEL CMOD3 CAP (T_MEASURED=25 TC1=3.749220e-004 TC2=2.806000e-006)
.MODEL CMOD4 CAP (T_MEASURED=25 TC1=3.749220e-004 TC2=2.806000e-006)
.MODEL CMOD5 CAP (T_MEASURED=25 TC1=3.749220e-004 TC2=2.806000e-006)
.MODEL CMOD6 CAP (T_MEASURED=25 TC1=3.749220e-004 TC2=2.806000e-006)
.MODEL RMOD1 RES (T_MEASURED=25 TC1=5.948893e-003 TC2=5.337100e-005)
.MODEL RMOD2 RES (T_MEASURED=25 TC1=-1.770874e-003 TC2=1.281300e-005)
.MODEL RMOD3 RES (T_MEASURED=25 TC1=-7.138201e-003 TC2=2.153200e-005)
.MODEL RMOD4 RES (T_MEASURED=25 TC1=-7.138201e-003 TC2=2.153200e-005)
.MODEL RMOD5 RES (T_MEASURED=25 TC1=-7.138201e-003 TC2=2.153200e-005)
.MODEL RMOD6 RES (T_MEASURED=25 TC1=-7.138201e-003 TC2=2.153200e-005)
.MODEL DFWD D (RS=0.1 IS=1e-25 N=2.5 XTI=0 EG=0.1)

.ENDS

.SUBCKT TRJA104K035R 1 9

*parasitic inductance
Lesl 1 2 1.800000e-009
Rels 1 2 10

*leakage current & reverse bias effects
Rp 2 9 1.100000e+009
Dp 9 2 DFWD

*RC-ladder model of frequency effects
R1 2 3 RMOD1 5.494667e+001
C1 2 3 CMOD1 8.643055e-006
R2 3 4 RMOD2 1.080000e-004
C2 4 9 CMOD2 3.229476e-009
R3 4 5 RMOD3 1.028055e+001
C3 5 9 CMOD3 6.458951e-009
R4 5 6 RMOD4 1.080000e-004
C4 6 9 CMOD4 1.291790e-008
R5 6 7 RMOD5 1.080000e-004
C5 7 9 CMOD5 2.583581e-008
R6 7 8 RMOD6 2.967351e+001
C6 8 9 CMOD6 5.167161e-008

.MODEL CMOD1 CAP (T_MEASURED=25 TC1=1.463615e-003 TC2=-4.147800e-005)
.MODEL CMOD2 CAP (T_MEASURED=25 TC1=3.749220e-004 TC2=2.806000e-006)
.MODEL CMOD3 CAP (T_MEASURED=25 TC1=3.749220e-004 TC2=2.806000e-006)
.MODEL CMOD4 CAP (T_MEASURED=25 TC1=3.749220e-004 TC2=2.806000e-006)
.MODEL CMOD5 CAP (T_MEASURED=25 TC1=3.749220e-004 TC2=2.806000e-006)
.MODEL CMOD6 CAP (T_MEASURED=25 TC1=3.749220e-004 TC2=2.806000e-006)
.MODEL RMOD1 RES (T_MEASURED=25 TC1=5.948893e-003 TC2=5.337100e-005)
.MODEL RMOD2 RES (T_MEASURED=25 TC1=-1.770874e-003 TC2=1.281300e-005)
.MODEL RMOD3 RES (T_MEASURED=25 TC1=-7.138201e-003 TC2=2.153200e-005)
.MODEL RMOD4 RES (T_MEASURED=25 TC1=-7.138201e-003 TC2=2.153200e-005)
.MODEL RMOD5 RES (T_MEASURED=25 TC1=-7.138201e-003 TC2=2.153200e-005)
.MODEL RMOD6 RES (T_MEASURED=25 TC1=-7.138201e-003 TC2=2.153200e-005)
.MODEL DFWD D (RS=0.1 IS=1e-25 N=2.5 XTI=0 EG=0.1)

.ENDS

.SUBCKT TAJA104K035R 1 9

*parasitic inductance
Lesl 1 2 1.800000e-009
Rels 1 2 10

*leakage current & reverse bias effects
Rp 2 9 1.100000e+009
Dp 9 2 DFWD

*RC-ladder model of frequency effects
R1 2 3 RMOD1 5.698173e+001
C1 2 3 CMOD1 8.643055e-006
R2 3 4 RMOD2 1.120000e-004
C2 4 9 CMOD2 3.229476e-009
R3 4 5 RMOD3 1.066131e+001
C3 5 9 CMOD3 6.458951e-009
R4 5 6 RMOD4 1.120000e-004
C4 6 9 CMOD4 1.291790e-008
R5 6 7 RMOD5 1.120000e-004
C5 7 9 CMOD5 2.583581e-008
R6 7 8 RMOD6 3.077252e+001
C6 8 9 CMOD6 5.167161e-008

.MODEL CMOD1 CAP (T_MEASURED=25 TC1=1.463615e-003 TC2=-4.147800e-005)
.MODEL CMOD2 CAP (T_MEASURED=25 TC1=3.749220e-004 TC2=2.806000e-006)
.MODEL CMOD3 CAP (T_MEASURED=25 TC1=3.749220e-004 TC2=2.806000e-006)
.MODEL CMOD4 CAP (T_MEASURED=25 TC1=3.749220e-004 TC2=2.806000e-006)
.MODEL CMOD5 CAP (T_MEASURED=25 TC1=3.749220e-004 TC2=2.806000e-006)
.MODEL CMOD6 CAP (T_MEASURED=25 TC1=3.749220e-004 TC2=2.806000e-006)
.MODEL RMOD1 RES (T_MEASURED=25 TC1=5.948893e-003 TC2=5.337100e-005)
.MODEL RMOD2 RES (T_MEASURED=25 TC1=-1.770874e-003 TC2=1.281300e-005)
.MODEL RMOD3 RES (T_MEASURED=25 TC1=-7.138201e-003 TC2=2.153200e-005)
.MODEL RMOD4 RES (T_MEASURED=25 TC1=-7.138201e-003 TC2=2.153200e-005)
.MODEL RMOD5 RES (T_MEASURED=25 TC1=-7.138201e-003 TC2=2.153200e-005)
.MODEL RMOD6 RES (T_MEASURED=25 TC1=-7.138201e-003 TC2=2.153200e-005)
.MODEL DFWD D (RS=0.1 IS=1e-25 N=2.5 XTI=0 EG=0.1)

.ENDS

.SUBCKT TAJA104K050R 1 9

*parasitic inductance
Lesl 1 2 1.800000e-009
Rels 1 2 10

*leakage current & reverse bias effects
Rp 2 9 1.100000e+009
Dp 9 2 DFWD

*RC-ladder model of frequency effects
R1 2 3 RMOD1 1.041957e+002
C1 2 3 CMOD1 4.095451e-006
R2 3 4 RMOD2 4.299239e+000
C2 4 9 CMOD2 3.231684e-009
R3 4 5 RMOD3 1.120000e-004
C3 5 9 CMOD3 6.463367e-009
R4 5 6 RMOD4 1.120000e-004
C4 6 9 CMOD4 1.292673e-008
R5 6 7 RMOD5 1.120000e-004
C5 7 9 CMOD5 2.585347e-008
R6 7 8 RMOD6 1.716609e+001
C6 8 9 CMOD6 5.170694e-008

.MODEL CMOD1 CAP (T_MEASURED=25 TC1=1.463615e-003 TC2=-4.147800e-005)
.MODEL CMOD2 CAP (T_MEASURED=25 TC1=3.749220e-004 TC2=2.806000e-006)
.MODEL CMOD3 CAP (T_MEASURED=25 TC1=3.749220e-004 TC2=2.806000e-006)
.MODEL CMOD4 CAP (T_MEASURED=25 TC1=3.749220e-004 TC2=2.806000e-006)
.MODEL CMOD5 CAP (T_MEASURED=25 TC1=3.749220e-004 TC2=2.806000e-006)
.MODEL CMOD6 CAP (T_MEASURED=25 TC1=3.749220e-004 TC2=2.806000e-006)
.MODEL RMOD1 RES (T_MEASURED=25 TC1=5.948893e-003 TC2=5.337100e-005)
.MODEL RMOD2 RES (T_MEASURED=25 TC1=-1.770874e-003 TC2=1.281300e-005)
.MODEL RMOD3 RES (T_MEASURED=25 TC1=-7.138201e-003 TC2=2.153200e-005)
.MODEL RMOD4 RES (T_MEASURED=25 TC1=-7.138201e-003 TC2=2.153200e-005)
.MODEL RMOD5 RES (T_MEASURED=25 TC1=-7.138201e-003 TC2=2.153200e-005)
.MODEL RMOD6 RES (T_MEASURED=25 TC1=-7.138201e-003 TC2=2.153200e-005)
.MODEL DFWD D (RS=0.1 IS=1e-25 N=3.7 XTI=0 EG=0.1)

.ENDS

.SUBCKT THJA154K035R 1 9

*parasitic inductance
Lesl 1 2 1.800000e-009
Rels 1 2 10

*leakage current & reverse bias effects
Rp 2 9 7.333333e+008
Dp 9 2 DFWD

*RC-ladder model of frequency effects
R1 2 3 RMOD1 5.661569e+001
C1 2 3 CMOD1 8.803930e-006
R2 3 4 RMOD2 1.080000e-004
C2 4 9 CMOD2 4.847482e-009
R3 4 5 RMOD3 1.662591e+000
C3 5 9 CMOD3 9.694964e-009
R4 5 6 RMOD4 1.080000e-004
C4 6 9 CMOD4 1.938993e-008
R5 6 7 RMOD5 1.080000e-004
C5 7 9 CMOD5 3.877986e-008
R6 7 8 RMOD6 7.428827e+000
C6 8 9 CMOD6 7.755971e-008

.MODEL CMOD1 CAP (T_MEASURED=25 TC1=1.463615e-003 TC2=-4.147800e-005)
.MODEL CMOD2 CAP (T_MEASURED=25 TC1=3.749220e-004 TC2=2.806000e-006)
.MODEL CMOD3 CAP (T_MEASURED=25 TC1=3.749220e-004 TC2=2.806000e-006)
.MODEL CMOD4 CAP (T_MEASURED=25 TC1=3.749220e-004 TC2=2.806000e-006)
.MODEL CMOD5 CAP (T_MEASURED=25 TC1=3.749220e-004 TC2=2.806000e-006)
.MODEL CMOD6 CAP (T_MEASURED=25 TC1=3.749220e-004 TC2=2.806000e-006)
.MODEL RMOD1 RES (T_MEASURED=25 TC1=5.948893e-003 TC2=5.337100e-005)
.MODEL RMOD2 RES (T_MEASURED=25 TC1=-1.770874e-003 TC2=1.281300e-005)
.MODEL RMOD3 RES (T_MEASURED=25 TC1=-7.138201e-003 TC2=2.153200e-005)
.MODEL RMOD4 RES (T_MEASURED=25 TC1=-7.138201e-003 TC2=2.153200e-005)
.MODEL RMOD5 RES (T_MEASURED=25 TC1=-7.138201e-003 TC2=2.153200e-005)
.MODEL RMOD6 RES (T_MEASURED=25 TC1=-7.138201e-003 TC2=2.153200e-005)
.MODEL DFWD D (RS=0.1 IS=1e-25 N=2.5 XTI=0 EG=0.1)

.ENDS

.SUBCKT TRJA154K035R 1 9

*parasitic inductance
Lesl 1 2 1.800000e-009
Rels 1 2 10

*leakage current & reverse bias effects
Rp 2 9 7.333333e+008
Dp 9 2 DFWD

*RC-ladder model of frequency effects
R1 2 3 RMOD1 5.766413e+001
C1 2 3 CMOD1 8.803930e-006
R2 3 4 RMOD2 1.100000e-004
C2 4 9 CMOD2 4.847482e-009
R3 4 5 RMOD3 1.693380e+000
C3 5 9 CMOD3 9.694964e-009
R4 5 6 RMOD4 1.100000e-004
C4 6 9 CMOD4 1.938993e-008
R5 6 7 RMOD5 1.100000e-004
C5 7 9 CMOD5 3.877986e-008
R6 7 8 RMOD6 7.566397e+000
C6 8 9 CMOD6 7.755971e-008

.MODEL CMOD1 CAP (T_MEASURED=25 TC1=1.463615e-003 TC2=-4.147800e-005)
.MODEL CMOD2 CAP (T_MEASURED=25 TC1=3.749220e-004 TC2=2.806000e-006)
.MODEL CMOD3 CAP (T_MEASURED=25 TC1=3.749220e-004 TC2=2.806000e-006)
.MODEL CMOD4 CAP (T_MEASURED=25 TC1=3.749220e-004 TC2=2.806000e-006)
.MODEL CMOD5 CAP (T_MEASURED=25 TC1=3.749220e-004 TC2=2.806000e-006)
.MODEL CMOD6 CAP (T_MEASURED=25 TC1=3.749220e-004 TC2=2.806000e-006)
.MODEL RMOD1 RES (T_MEASURED=25 TC1=5.948893e-003 TC2=5.337100e-005)
.MODEL RMOD2 RES (T_MEASURED=25 TC1=-1.770874e-003 TC2=1.281300e-005)
.MODEL RMOD3 RES (T_MEASURED=25 TC1=-7.138201e-003 TC2=2.153200e-005)
.MODEL RMOD4 RES (T_MEASURED=25 TC1=-7.138201e-003 TC2=2.153200e-005)
.MODEL RMOD5 RES (T_MEASURED=25 TC1=-7.138201e-003 TC2=2.153200e-005)
.MODEL RMOD6 RES (T_MEASURED=25 TC1=-7.138201e-003 TC2=2.153200e-005)
.MODEL DFWD D (RS=0.1 IS=1e-25 N=2.5 XTI=0 EG=0.1)

.ENDS

.SUBCKT TAJA154K035R 1 9

*parasitic inductance
Lesl 1 2 1.800000e-009
Rels 1 2 10

*leakage current & reverse bias effects
Rp 2 9 7.333333e+008
Dp 9 2 DFWD

*RC-ladder model of frequency effects
R1 2 3 RMOD1 5.871257e+001
C1 2 3 CMOD1 8.803930e-006
R2 3 4 RMOD2 1.120000e-004
C2 4 9 CMOD2 4.847482e-009
R3 4 5 RMOD3 1.724169e+000
C3 5 9 CMOD3 9.694964e-009
R4 5 6 RMOD4 1.120000e-004
C4 6 9 CMOD4 1.938993e-008
R5 6 7 RMOD5 1.120000e-004
C5 7 9 CMOD5 3.877986e-008
R6 7 8 RMOD6 7.703968e+000
C6 8 9 CMOD6 7.755971e-008

.MODEL CMOD1 CAP (T_MEASURED=25 TC1=1.463615e-003 TC2=-4.147800e-005)
.MODEL CMOD2 CAP (T_MEASURED=25 TC1=3.749220e-004 TC2=2.806000e-006)
.MODEL CMOD3 CAP (T_MEASURED=25 TC1=3.749220e-004 TC2=2.806000e-006)
.MODEL CMOD4 CAP (T_MEASURED=25 TC1=3.749220e-004 TC2=2.806000e-006)
.MODEL CMOD5 CAP (T_MEASURED=25 TC1=3.749220e-004 TC2=2.806000e-006)
.MODEL CMOD6 CAP (T_MEASURED=25 TC1=3.749220e-004 TC2=2.806000e-006)
.MODEL RMOD1 RES (T_MEASURED=25 TC1=5.948893e-003 TC2=5.337100e-005)
.MODEL RMOD2 RES (T_MEASURED=25 TC1=-1.770874e-003 TC2=1.281300e-005)
.MODEL RMOD3 RES (T_MEASURED=25 TC1=-7.138201e-003 TC2=2.153200e-005)
.MODEL RMOD4 RES (T_MEASURED=25 TC1=-7.138201e-003 TC2=2.153200e-005)
.MODEL RMOD5 RES (T_MEASURED=25 TC1=-7.138201e-003 TC2=2.153200e-005)
.MODEL RMOD6 RES (T_MEASURED=25 TC1=-7.138201e-003 TC2=2.153200e-005)
.MODEL DFWD D (RS=0.1 IS=1e-25 N=2.5 XTI=0 EG=0.1)

.ENDS

.SUBCKT TPSA154K050R9000 1 9

*parasitic inductance
Lesl 1 2 1.800000e-009
Rels 1 2 10

*leakage current & reverse bias effects
Rp 2 9 7.333333e+008
Dp 9 2 DFWD

*RC-ladder model of frequency effects
R1 2 3 RMOD1 5.939856e+001
C1 2 3 CMOD1 8.156826e-006
R2 3 4 RMOD2 1.100000e-004
C2 4 9 CMOD2 4.846724e-009
R3 4 5 RMOD3 2.081611e+000
C3 5 9 CMOD3 9.693447e-009
R4 5 6 RMOD4 1.100000e-004
C4 6 9 CMOD4 1.938689e-008
R5 6 7 RMOD5 1.100000e-004
C5 7 9 CMOD5 3.877379e-008
R6 7 8 RMOD6 7.386996e+000
C6 8 9 CMOD6 7.754758e-008

.MODEL CMOD1 CAP (T_MEASURED=25 TC1=1.463615e-003 TC2=-4.147800e-005)
.MODEL CMOD2 CAP (T_MEASURED=25 TC1=3.749220e-004 TC2=2.806000e-006)
.MODEL CMOD3 CAP (T_MEASURED=25 TC1=3.749220e-004 TC2=2.806000e-006)
.MODEL CMOD4 CAP (T_MEASURED=25 TC1=3.749220e-004 TC2=2.806000e-006)
.MODEL CMOD5 CAP (T_MEASURED=25 TC1=3.749220e-004 TC2=2.806000e-006)
.MODEL CMOD6 CAP (T_MEASURED=25 TC1=3.749220e-004 TC2=2.806000e-006)
.MODEL RMOD1 RES (T_MEASURED=25 TC1=5.948893e-003 TC2=5.337100e-005)
.MODEL RMOD2 RES (T_MEASURED=25 TC1=-1.770874e-003 TC2=1.281300e-005)
.MODEL RMOD3 RES (T_MEASURED=25 TC1=-7.138201e-003 TC2=2.153200e-005)
.MODEL RMOD4 RES (T_MEASURED=25 TC1=-7.138201e-003 TC2=2.153200e-005)
.MODEL RMOD5 RES (T_MEASURED=25 TC1=-7.138201e-003 TC2=2.153200e-005)
.MODEL RMOD6 RES (T_MEASURED=25 TC1=-7.138201e-003 TC2=2.153200e-005)
.MODEL DFWD D (RS=0.1 IS=1e-25 N=3.7 XTI=0 EG=0.1)

.ENDS

.SUBCKT TAJA154K050R 1 9

*parasitic inductance
Lesl 1 2 1.800000e-009
Rels 1 2 10

*leakage current & reverse bias effects
Rp 2 9 7.333333e+008
Dp 9 2 DFWD

*RC-ladder model of frequency effects
R1 2 3 RMOD1 6.479842e+001
C1 2 3 CMOD1 8.156826e-006
R2 3 4 RMOD2 1.200000e-004
C2 4 9 CMOD2 4.846724e-009
R3 4 5 RMOD3 2.270848e+000
C3 5 9 CMOD3 9.693447e-009
R4 5 6 RMOD4 1.200000e-004
C4 6 9 CMOD4 1.938689e-008
R5 6 7 RMOD5 1.200000e-004
C5 7 9 CMOD5 3.877379e-008
R6 7 8 RMOD6 8.058541e+000
C6 8 9 CMOD6 7.754758e-008

.MODEL CMOD1 CAP (T_MEASURED=25 TC1=1.463615e-003 TC2=-4.147800e-005)
.MODEL CMOD2 CAP (T_MEASURED=25 TC1=3.749220e-004 TC2=2.806000e-006)
.MODEL CMOD3 CAP (T_MEASURED=25 TC1=3.749220e-004 TC2=2.806000e-006)
.MODEL CMOD4 CAP (T_MEASURED=25 TC1=3.749220e-004 TC2=2.806000e-006)
.MODEL CMOD5 CAP (T_MEASURED=25 TC1=3.749220e-004 TC2=2.806000e-006)
.MODEL CMOD6 CAP (T_MEASURED=25 TC1=3.749220e-004 TC2=2.806000e-006)
.MODEL RMOD1 RES (T_MEASURED=25 TC1=5.948893e-003 TC2=5.337100e-005)
.MODEL RMOD2 RES (T_MEASURED=25 TC1=-1.770874e-003 TC2=1.281300e-005)
.MODEL RMOD3 RES (T_MEASURED=25 TC1=-7.138201e-003 TC2=2.153200e-005)
.MODEL RMOD4 RES (T_MEASURED=25 TC1=-7.138201e-003 TC2=2.153200e-005)
.MODEL RMOD5 RES (T_MEASURED=25 TC1=-7.138201e-003 TC2=2.153200e-005)
.MODEL RMOD6 RES (T_MEASURED=25 TC1=-7.138201e-003 TC2=2.153200e-005)
.MODEL DFWD D (RS=0.1 IS=1e-25 N=3.7 XTI=0 EG=0.1)

.ENDS

.SUBCKT TPSA224K035R6000 1 9

*parasitic inductance
Lesl 1 2 1.800000e-009
Rels 1 2 10

*leakage current & reverse bias effects
Rp 2 9 5.000000e+008
Dp 9 2 DFWD

*RC-ladder model of frequency effects
R1 2 3 RMOD1 1.456884e+001
C1 2 3 CMOD1 3.296802e-005
R2 3 4 RMOD2 1.100000e-004
C2 4 9 CMOD2 7.101439e-009
R3 4 5 RMOD3 1.100000e-004
C3 5 9 CMOD3 1.420288e-008
R4 5 6 RMOD4 4.090593e+000
C4 6 9 CMOD4 2.840576e-008
R5 6 7 RMOD5 1.100000e-004
C5 7 9 CMOD5 5.681151e-008
R6 7 8 RMOD6 1.100000e-004
C6 8 9 CMOD6 1.136230e-007

.MODEL CMOD1 CAP (T_MEASURED=25 TC1=1.463615e-003 TC2=-4.147800e-005)
.MODEL CMOD2 CAP (T_MEASURED=25 TC1=3.749220e-004 TC2=2.806000e-006)
.MODEL CMOD3 CAP (T_MEASURED=25 TC1=3.749220e-004 TC2=2.806000e-006)
.MODEL CMOD4 CAP (T_MEASURED=25 TC1=3.749220e-004 TC2=2.806000e-006)
.MODEL CMOD5 CAP (T_MEASURED=25 TC1=3.749220e-004 TC2=2.806000e-006)
.MODEL CMOD6 CAP (T_MEASURED=25 TC1=3.749220e-004 TC2=2.806000e-006)
.MODEL RMOD1 RES (T_MEASURED=25 TC1=5.948893e-003 TC2=5.337100e-005)
.MODEL RMOD2 RES (T_MEASURED=25 TC1=-1.770874e-003 TC2=1.281300e-005)
.MODEL RMOD3 RES (T_MEASURED=25 TC1=-7.138201e-003 TC2=2.153200e-005)
.MODEL RMOD4 RES (T_MEASURED=25 TC1=-7.138201e-003 TC2=2.153200e-005)
.MODEL RMOD5 RES (T_MEASURED=25 TC1=-7.138201e-003 TC2=2.153200e-005)
.MODEL RMOD6 RES (T_MEASURED=25 TC1=-7.138201e-003 TC2=2.153200e-005)
.MODEL DFWD D (RS=0.1 IS=1e-25 N=2.5 XTI=0 EG=0.1)

.ENDS

.SUBCKT TRJA224K035R 1 9

*parasitic inductance
Lesl 1 2 1.800000e-009
Rels 1 2 10

*leakage current & reverse bias effects
Rp 2 9 5.000000e+008
Dp 9 2 DFWD

*RC-ladder model of frequency effects
R1 2 3 RMOD1 1.523107e+001
C1 2 3 CMOD1 3.296802e-005
R2 3 4 RMOD2 1.150000e-004
C2 4 9 CMOD2 7.101439e-009
R3 4 5 RMOD3 1.150000e-004
C3 5 9 CMOD3 1.420288e-008
R4 5 6 RMOD4 4.276529e+000
C4 6 9 CMOD4 2.840576e-008
R5 6 7 RMOD5 1.150000e-004
C5 7 9 CMOD5 5.681151e-008
R6 7 8 RMOD6 1.150000e-004
C6 8 9 CMOD6 1.136230e-007

.MODEL CMOD1 CAP (T_MEASURED=25 TC1=1.463615e-003 TC2=-4.147800e-005)
.MODEL CMOD2 CAP (T_MEASURED=25 TC1=3.749220e-004 TC2=2.806000e-006)
.MODEL CMOD3 CAP (T_MEASURED=25 TC1=3.749220e-004 TC2=2.806000e-006)
.MODEL CMOD4 CAP (T_MEASURED=25 TC1=3.749220e-004 TC2=2.806000e-006)
.MODEL CMOD5 CAP (T_MEASURED=25 TC1=3.749220e-004 TC2=2.806000e-006)
.MODEL CMOD6 CAP (T_MEASURED=25 TC1=3.749220e-004 TC2=2.806000e-006)
.MODEL RMOD1 RES (T_MEASURED=25 TC1=5.948893e-003 TC2=5.337100e-005)
.MODEL RMOD2 RES (T_MEASURED=25 TC1=-1.770874e-003 TC2=1.281300e-005)
.MODEL RMOD3 RES (T_MEASURED=25 TC1=-7.138201e-003 TC2=2.153200e-005)
.MODEL RMOD4 RES (T_MEASURED=25 TC1=-7.138201e-003 TC2=2.153200e-005)
.MODEL RMOD5 RES (T_MEASURED=25 TC1=-7.138201e-003 TC2=2.153200e-005)
.MODEL RMOD6 RES (T_MEASURED=25 TC1=-7.138201e-003 TC2=2.153200e-005)
.MODEL DFWD D (RS=0.1 IS=1e-25 N=2.5 XTI=0 EG=0.1)

.ENDS

.SUBCKT THJA224K035R 1 9

*parasitic inductance
Lesl 1 2 1.800000e-009
Rels 1 2 10

*leakage current & reverse bias effects
Rp 2 9 5.000000e+008
Dp 9 2 DFWD

*RC-ladder model of frequency effects
R1 2 3 RMOD1 1.562840e+001
C1 2 3 CMOD1 3.296802e-005
R2 3 4 RMOD2 1.180000e-004
C2 4 9 CMOD2 7.101439e-009
R3 4 5 RMOD3 1.180000e-004
C3 5 9 CMOD3 1.420288e-008
R4 5 6 RMOD4 4.388090e+000
C4 6 9 CMOD4 2.840576e-008
R5 6 7 RMOD5 1.180000e-004
C5 7 9 CMOD5 5.681151e-008
R6 7 8 RMOD6 1.180000e-004
C6 8 9 CMOD6 1.136230e-007

.MODEL CMOD1 CAP (T_MEASURED=25 TC1=1.463615e-003 TC2=-4.147800e-005)
.MODEL CMOD2 CAP (T_MEASURED=25 TC1=3.749220e-004 TC2=2.806000e-006)
.MODEL CMOD3 CAP (T_MEASURED=25 TC1=3.749220e-004 TC2=2.806000e-006)
.MODEL CMOD4 CAP (T_MEASURED=25 TC1=3.749220e-004 TC2=2.806000e-006)
.MODEL CMOD5 CAP (T_MEASURED=25 TC1=3.749220e-004 TC2=2.806000e-006)
.MODEL CMOD6 CAP (T_MEASURED=25 TC1=3.749220e-004 TC2=2.806000e-006)
.MODEL RMOD1 RES (T_MEASURED=25 TC1=5.948893e-003 TC2=5.337100e-005)
.MODEL RMOD2 RES (T_MEASURED=25 TC1=-1.770874e-003 TC2=1.281300e-005)
.MODEL RMOD3 RES (T_MEASURED=25 TC1=-7.138201e-003 TC2=2.153200e-005)
.MODEL RMOD4 RES (T_MEASURED=25 TC1=-7.138201e-003 TC2=2.153200e-005)
.MODEL RMOD5 RES (T_MEASURED=25 TC1=-7.138201e-003 TC2=2.153200e-005)
.MODEL RMOD6 RES (T_MEASURED=25 TC1=-7.138201e-003 TC2=2.153200e-005)
.MODEL DFWD D (RS=0.1 IS=1e-25 N=2.5 XTI=0 EG=0.1)

.ENDS

.SUBCKT TAJA224K035R 1 9

*parasitic inductance
Lesl 1 2 1.800000e-009
Rels 1 2 10

*leakage current & reverse bias effects
Rp 2 9 5.000000e+008
Dp 9 2 DFWD

*RC-ladder model of frequency effects
R1 2 3 RMOD1 1.655551e+001
C1 2 3 CMOD1 3.296802e-005
R2 3 4 RMOD2 1.250000e-004
C2 4 9 CMOD2 7.101439e-009
R3 4 5 RMOD3 1.250000e-004
C3 5 9 CMOD3 1.420288e-008
R4 5 6 RMOD4 4.648401e+000
C4 6 9 CMOD4 2.840576e-008
R5 6 7 RMOD5 1.250000e-004
C5 7 9 CMOD5 5.681151e-008
R6 7 8 RMOD6 1.250000e-004
C6 8 9 CMOD6 1.136230e-007

.MODEL CMOD1 CAP (T_MEASURED=25 TC1=1.463615e-003 TC2=-4.147800e-005)
.MODEL CMOD2 CAP (T_MEASURED=25 TC1=3.749220e-004 TC2=2.806000e-006)
.MODEL CMOD3 CAP (T_MEASURED=25 TC1=3.749220e-004 TC2=2.806000e-006)
.MODEL CMOD4 CAP (T_MEASURED=25 TC1=3.749220e-004 TC2=2.806000e-006)
.MODEL CMOD5 CAP (T_MEASURED=25 TC1=3.749220e-004 TC2=2.806000e-006)
.MODEL CMOD6 CAP (T_MEASURED=25 TC1=3.749220e-004 TC2=2.806000e-006)
.MODEL RMOD1 RES (T_MEASURED=25 TC1=5.948893e-003 TC2=5.337100e-005)
.MODEL RMOD2 RES (T_MEASURED=25 TC1=-1.770874e-003 TC2=1.281300e-005)
.MODEL RMOD3 RES (T_MEASURED=25 TC1=-7.138201e-003 TC2=2.153200e-005)
.MODEL RMOD4 RES (T_MEASURED=25 TC1=-7.138201e-003 TC2=2.153200e-005)
.MODEL RMOD5 RES (T_MEASURED=25 TC1=-7.138201e-003 TC2=2.153200e-005)
.MODEL RMOD6 RES (T_MEASURED=25 TC1=-7.138201e-003 TC2=2.153200e-005)
.MODEL DFWD D (RS=0.1 IS=1e-25 N=2.5 XTI=0 EG=0.1)

.ENDS

.SUBCKT TPSA224K050R7000 1 9

*parasitic inductance
Lesl 1 2 1.800000e-009
Rels 1 2 10

*leakage current & reverse bias effects
Rp 2 9 5.000000e+008
Dp 9 2 DFWD

*RC-ladder model of frequency effects
R1 2 3 RMOD1 3.536188e+001
C1 2 3 CMOD1 1.546878e-005
R2 3 4 RMOD2 1.100000e-004
C2 4 9 CMOD2 7.107986e-009
R3 4 5 RMOD3 3.955216e+000
C3 5 9 CMOD3 1.421597e-008
R4 5 6 RMOD4 1.100000e-004
C4 6 9 CMOD4 2.843194e-008
R5 6 7 RMOD5 1.100000e-004
C5 7 9 CMOD5 5.686389e-008
R6 7 8 RMOD6 1.025820e+001
C6 8 9 CMOD6 1.137278e-007

.MODEL CMOD1 CAP (T_MEASURED=25 TC1=1.463615e-003 TC2=-4.147800e-005)
.MODEL CMOD2 CAP (T_MEASURED=25 TC1=3.749220e-004 TC2=2.806000e-006)
.MODEL CMOD3 CAP (T_MEASURED=25 TC1=3.749220e-004 TC2=2.806000e-006)
.MODEL CMOD4 CAP (T_MEASURED=25 TC1=3.749220e-004 TC2=2.806000e-006)
.MODEL CMOD5 CAP (T_MEASURED=25 TC1=3.749220e-004 TC2=2.806000e-006)
.MODEL CMOD6 CAP (T_MEASURED=25 TC1=3.749220e-004 TC2=2.806000e-006)
.MODEL RMOD1 RES (T_MEASURED=25 TC1=5.948893e-003 TC2=5.337100e-005)
.MODEL RMOD2 RES (T_MEASURED=25 TC1=-1.770874e-003 TC2=1.281300e-005)
.MODEL RMOD3 RES (T_MEASURED=25 TC1=-7.138201e-003 TC2=2.153200e-005)
.MODEL RMOD4 RES (T_MEASURED=25 TC1=-7.138201e-003 TC2=2.153200e-005)
.MODEL RMOD5 RES (T_MEASURED=25 TC1=-7.138201e-003 TC2=2.153200e-005)
.MODEL RMOD6 RES (T_MEASURED=25 TC1=-7.138201e-003 TC2=2.153200e-005)
.MODEL DFWD D (RS=0.1 IS=1e-25 N=3.7 XTI=0 EG=0.1)

.ENDS

.SUBCKT TAJA224K050R 1 9

*parasitic inductance
Lesl 1 2 1.800000e-009
Rels 1 2 10

*leakage current & reverse bias effects
Rp 2 9 5.000000e+008
Dp 9 2 DFWD

*RC-ladder model of frequency effects
R1 2 3 RMOD1 3.857659e+001
C1 2 3 CMOD1 1.546878e-005
R2 3 4 RMOD2 1.200000e-004
C2 4 9 CMOD2 7.107986e-009
R3 4 5 RMOD3 4.314781e+000
C3 5 9 CMOD3 1.421597e-008
R4 5 6 RMOD4 1.200000e-004
C4 6 9 CMOD4 2.843194e-008
R5 6 7 RMOD5 1.200000e-004
C5 7 9 CMOD5 5.686389e-008
R6 7 8 RMOD6 1.119076e+001
C6 8 9 CMOD6 1.137278e-007

.MODEL CMOD1 CAP (T_MEASURED=25 TC1=1.463615e-003 TC2=-4.147800e-005)
.MODEL CMOD2 CAP (T_MEASURED=25 TC1=3.749220e-004 TC2=2.806000e-006)
.MODEL CMOD3 CAP (T_MEASURED=25 TC1=3.749220e-004 TC2=2.806000e-006)
.MODEL CMOD4 CAP (T_MEASURED=25 TC1=3.749220e-004 TC2=2.806000e-006)
.MODEL CMOD5 CAP (T_MEASURED=25 TC1=3.749220e-004 TC2=2.806000e-006)
.MODEL CMOD6 CAP (T_MEASURED=25 TC1=3.749220e-004 TC2=2.806000e-006)
.MODEL RMOD1 RES (T_MEASURED=25 TC1=5.948893e-003 TC2=5.337100e-005)
.MODEL RMOD2 RES (T_MEASURED=25 TC1=-1.770874e-003 TC2=1.281300e-005)
.MODEL RMOD3 RES (T_MEASURED=25 TC1=-7.138201e-003 TC2=2.153200e-005)
.MODEL RMOD4 RES (T_MEASURED=25 TC1=-7.138201e-003 TC2=2.153200e-005)
.MODEL RMOD5 RES (T_MEASURED=25 TC1=-7.138201e-003 TC2=2.153200e-005)
.MODEL RMOD6 RES (T_MEASURED=25 TC1=-7.138201e-003 TC2=2.153200e-005)
.MODEL DFWD D (RS=0.1 IS=1e-25 N=3.7 XTI=0 EG=0.1)

.ENDS

.SUBCKT TPSA334K035R6000 1 9

*parasitic inductance
Lesl 1 2 1.800000e-009
Rels 1 2 10

*leakage current & reverse bias effects
Rp 2 9 3.333333e+008
Dp 9 2 DFWD

*RC-ladder model of frequency effects
R1 2 3 RMOD1 1.408841e+001
C1 2 3 CMOD1 2.522834e-005
R2 3 4 RMOD2 9.387520e-001
C2 4 9 CMOD2 1.065276e-008
R3 4 5 RMOD3 1.100000e-004
C3 5 9 CMOD3 2.130553e-008
R4 5 6 RMOD4 8.674832e-001
C4 6 9 CMOD4 4.261106e-008
R5 6 7 RMOD5 1.100000e-004
C5 7 9 CMOD5 8.522212e-008
R6 7 8 RMOD6 2.516109e+000
C6 8 9 CMOD6 1.704442e-007

.MODEL CMOD1 CAP (T_MEASURED=25 TC1=1.463615e-003 TC2=-4.147800e-005)
.MODEL CMOD2 CAP (T_MEASURED=25 TC1=3.749220e-004 TC2=2.806000e-006)
.MODEL CMOD3 CAP (T_MEASURED=25 TC1=3.749220e-004 TC2=2.806000e-006)
.MODEL CMOD4 CAP (T_MEASURED=25 TC1=3.749220e-004 TC2=2.806000e-006)
.MODEL CMOD5 CAP (T_MEASURED=25 TC1=3.749220e-004 TC2=2.806000e-006)
.MODEL CMOD6 CAP (T_MEASURED=25 TC1=3.749220e-004 TC2=2.806000e-006)
.MODEL RMOD1 RES (T_MEASURED=25 TC1=5.948893e-003 TC2=5.337100e-005)
.MODEL RMOD2 RES (T_MEASURED=25 TC1=-1.770874e-003 TC2=1.281300e-005)
.MODEL RMOD3 RES (T_MEASURED=25 TC1=-7.138201e-003 TC2=2.153200e-005)
.MODEL RMOD4 RES (T_MEASURED=25 TC1=-7.138201e-003 TC2=2.153200e-005)
.MODEL RMOD5 RES (T_MEASURED=25 TC1=-7.138201e-003 TC2=2.153200e-005)
.MODEL RMOD6 RES (T_MEASURED=25 TC1=-7.138201e-003 TC2=2.153200e-005)
.MODEL DFWD D (RS=0.1 IS=1e-25 N=2.5 XTI=0 EG=0.1)

.ENDS

.SUBCKT THJA334K035R 1 9

*parasitic inductance
Lesl 1 2 1.800000e-009
Rels 1 2 10

*leakage current & reverse bias effects
Rp 2 9 3.333333e+008
Dp 9 2 DFWD

*RC-ladder model of frequency effects
R1 2 3 RMOD1 1.511302e+001
C1 2 3 CMOD1 2.522834e-005
R2 3 4 RMOD2 1.007025e+000
C2 4 9 CMOD2 1.065276e-008
R3 4 5 RMOD3 1.180000e-004
C3 5 9 CMOD3 2.130553e-008
R4 5 6 RMOD4 9.305728e-001
C4 6 9 CMOD4 4.261106e-008
R5 6 7 RMOD5 1.180000e-004
C5 7 9 CMOD5 8.522212e-008
R6 7 8 RMOD6 2.699099e+000
C6 8 9 CMOD6 1.704442e-007

.MODEL CMOD1 CAP (T_MEASURED=25 TC1=1.463615e-003 TC2=-4.147800e-005)
.MODEL CMOD2 CAP (T_MEASURED=25 TC1=3.749220e-004 TC2=2.806000e-006)
.MODEL CMOD3 CAP (T_MEASURED=25 TC1=3.749220e-004 TC2=2.806000e-006)
.MODEL CMOD4 CAP (T_MEASURED=25 TC1=3.749220e-004 TC2=2.806000e-006)
.MODEL CMOD5 CAP (T_MEASURED=25 TC1=3.749220e-004 TC2=2.806000e-006)
.MODEL CMOD6 CAP (T_MEASURED=25 TC1=3.749220e-004 TC2=2.806000e-006)
.MODEL RMOD1 RES (T_MEASURED=25 TC1=5.948893e-003 TC2=5.337100e-005)
.MODEL RMOD2 RES (T_MEASURED=25 TC1=-1.770874e-003 TC2=1.281300e-005)
.MODEL RMOD3 RES (T_MEASURED=25 TC1=-7.138201e-003 TC2=2.153200e-005)
.MODEL RMOD4 RES (T_MEASURED=25 TC1=-7.138201e-003 TC2=2.153200e-005)
.MODEL RMOD5 RES (T_MEASURED=25 TC1=-7.138201e-003 TC2=2.153200e-005)
.MODEL RMOD6 RES (T_MEASURED=25 TC1=-7.138201e-003 TC2=2.153200e-005)
.MODEL DFWD D (RS=0.1 IS=1e-25 N=2.5 XTI=0 EG=0.1)

.ENDS

.SUBCKT TAJA334K035R 1 9

*parasitic inductance
Lesl 1 2 1.800000e-009
Rels 1 2 10

*leakage current & reverse bias effects
Rp 2 9 3.333333e+008
Dp 9 2 DFWD

*RC-ladder model of frequency effects
R1 2 3 RMOD1 1.562532e+001
C1 2 3 CMOD1 2.522834e-005
R2 3 4 RMOD2 1.041161e+000
C2 4 9 CMOD2 1.065276e-008
R3 4 5 RMOD3 1.220000e-004
C3 5 9 CMOD3 2.130553e-008
R4 5 6 RMOD4 9.621177e-001
C4 6 9 CMOD4 4.261106e-008
R5 6 7 RMOD5 1.220000e-004
C5 7 9 CMOD5 8.522212e-008
R6 7 8 RMOD6 2.790594e+000
C6 8 9 CMOD6 1.704442e-007

.MODEL CMOD1 CAP (T_MEASURED=25 TC1=1.463615e-003 TC2=-4.147800e-005)
.MODEL CMOD2 CAP (T_MEASURED=25 TC1=3.749220e-004 TC2=2.806000e-006)
.MODEL CMOD3 CAP (T_MEASURED=25 TC1=3.749220e-004 TC2=2.806000e-006)
.MODEL CMOD4 CAP (T_MEASURED=25 TC1=3.749220e-004 TC2=2.806000e-006)
.MODEL CMOD5 CAP (T_MEASURED=25 TC1=3.749220e-004 TC2=2.806000e-006)
.MODEL CMOD6 CAP (T_MEASURED=25 TC1=3.749220e-004 TC2=2.806000e-006)
.MODEL RMOD1 RES (T_MEASURED=25 TC1=5.948893e-003 TC2=5.337100e-005)
.MODEL RMOD2 RES (T_MEASURED=25 TC1=-1.770874e-003 TC2=1.281300e-005)
.MODEL RMOD3 RES (T_MEASURED=25 TC1=-7.138201e-003 TC2=2.153200e-005)
.MODEL RMOD4 RES (T_MEASURED=25 TC1=-7.138201e-003 TC2=2.153200e-005)
.MODEL RMOD5 RES (T_MEASURED=25 TC1=-7.138201e-003 TC2=2.153200e-005)
.MODEL RMOD6 RES (T_MEASURED=25 TC1=-7.138201e-003 TC2=2.153200e-005)
.MODEL DFWD D (RS=0.1 IS=1e-25 N=2.5 XTI=0 EG=0.1)

.ENDS

.SUBCKT TPSA474K025R7000 1 9

*parasitic inductance
Lesl 1 2 1.800000e-009
Rels 1 2 10

*leakage current & reverse bias effects
Rp 2 9 2.340426e+008
Dp 9 2 DFWD

*RC-ladder model of frequency effects
R1 2 3 RMOD1 1.771296e+001
C1 2 3 CMOD1 2.299546e-005
R2 3 4 RMOD2 1.100000e-004
C2 4 9 CMOD2 1.518116e-008
R3 4 5 RMOD3 1.235158e+000
C3 5 9 CMOD3 3.036232e-008
R4 5 6 RMOD4 1.100000e-004
C4 6 9 CMOD4 6.072463e-008
R5 6 7 RMOD5 1.100000e-004
C5 7 9 CMOD5 1.214493e-007
R6 7 8 RMOD6 2.683178e+000
C6 8 9 CMOD6 2.428985e-007

.MODEL CMOD1 CAP (T_MEASURED=25 TC1=1.463615e-003 TC2=-4.147800e-005)
.MODEL CMOD2 CAP (T_MEASURED=25 TC1=3.749220e-004 TC2=2.806000e-006)
.MODEL CMOD3 CAP (T_MEASURED=25 TC1=3.749220e-004 TC2=2.806000e-006)
.MODEL CMOD4 CAP (T_MEASURED=25 TC1=3.749220e-004 TC2=2.806000e-006)
.MODEL CMOD5 CAP (T_MEASURED=25 TC1=3.749220e-004 TC2=2.806000e-006)
.MODEL CMOD6 CAP (T_MEASURED=25 TC1=3.749220e-004 TC2=2.806000e-006)
.MODEL RMOD1 RES (T_MEASURED=25 TC1=5.948893e-003 TC2=5.337100e-005)
.MODEL RMOD2 RES (T_MEASURED=25 TC1=-1.770874e-003 TC2=1.281300e-005)
.MODEL RMOD3 RES (T_MEASURED=25 TC1=-7.138201e-003 TC2=2.153200e-005)
.MODEL RMOD4 RES (T_MEASURED=25 TC1=-7.138201e-003 TC2=2.153200e-005)
.MODEL RMOD5 RES (T_MEASURED=25 TC1=-7.138201e-003 TC2=2.153200e-005)
.MODEL RMOD6 RES (T_MEASURED=25 TC1=-7.138201e-003 TC2=2.153200e-005)
.MODEL DFWD D (RS=0.1 IS=1e-18 N=2.5 XTI=0 EG=0.1)

.ENDS

.SUBCKT TRJA474K025R 1 9

*parasitic inductance
Lesl 1 2 1.800000e-009
Rels 1 2 10

*leakage current & reverse bias effects
Rp 2 9 2.340426e+008
Dp 9 2 DFWD

*RC-ladder model of frequency effects
R1 2 3 RMOD1 1.851810e+001
C1 2 3 CMOD1 2.299546e-005
R2 3 4 RMOD2 1.150000e-004
C2 4 9 CMOD2 1.518116e-008
R3 4 5 RMOD3 1.291301e+000
C3 5 9 CMOD3 3.036232e-008
R4 5 6 RMOD4 1.150000e-004
C4 6 9 CMOD4 6.072463e-008
R5 6 7 RMOD5 1.150000e-004
C5 7 9 CMOD5 1.214493e-007
R6 7 8 RMOD6 2.805140e+000
C6 8 9 CMOD6 2.428985e-007

.MODEL CMOD1 CAP (T_MEASURED=25 TC1=1.463615e-003 TC2=-4.147800e-005)
.MODEL CMOD2 CAP (T_MEASURED=25 TC1=3.749220e-004 TC2=2.806000e-006)
.MODEL CMOD3 CAP (T_MEASURED=25 TC1=3.749220e-004 TC2=2.806000e-006)
.MODEL CMOD4 CAP (T_MEASURED=25 TC1=3.749220e-004 TC2=2.806000e-006)
.MODEL CMOD5 CAP (T_MEASURED=25 TC1=3.749220e-004 TC2=2.806000e-006)
.MODEL CMOD6 CAP (T_MEASURED=25 TC1=3.749220e-004 TC2=2.806000e-006)
.MODEL RMOD1 RES (T_MEASURED=25 TC1=5.948893e-003 TC2=5.337100e-005)
.MODEL RMOD2 RES (T_MEASURED=25 TC1=-1.770874e-003 TC2=1.281300e-005)
.MODEL RMOD3 RES (T_MEASURED=25 TC1=-7.138201e-003 TC2=2.153200e-005)
.MODEL RMOD4 RES (T_MEASURED=25 TC1=-7.138201e-003 TC2=2.153200e-005)
.MODEL RMOD5 RES (T_MEASURED=25 TC1=-7.138201e-003 TC2=2.153200e-005)
.MODEL RMOD6 RES (T_MEASURED=25 TC1=-7.138201e-003 TC2=2.153200e-005)
.MODEL DFWD D (RS=0.1 IS=1e-18 N=2.5 XTI=0 EG=0.1)

.ENDS

.SUBCKT THJA474K025R 1 9

*parasitic inductance
Lesl 1 2 1.800000e-009
Rels 1 2 10

*leakage current & reverse bias effects
Rp 2 9 2.340426e+008
Dp 9 2 DFWD

*RC-ladder model of frequency effects
R1 2 3 RMOD1 1.900118e+001
C1 2 3 CMOD1 2.299546e-005
R2 3 4 RMOD2 1.180000e-004
C2 4 9 CMOD2 1.518116e-008
R3 4 5 RMOD3 1.324987e+000
C3 5 9 CMOD3 3.036232e-008
R4 5 6 RMOD4 1.180000e-004
C4 6 9 CMOD4 6.072463e-008
R5 6 7 RMOD5 1.180000e-004
C5 7 9 CMOD5 1.214493e-007
R6 7 8 RMOD6 2.878318e+000
C6 8 9 CMOD6 2.428985e-007

.MODEL CMOD1 CAP (T_MEASURED=25 TC1=1.463615e-003 TC2=-4.147800e-005)
.MODEL CMOD2 CAP (T_MEASURED=25 TC1=3.749220e-004 TC2=2.806000e-006)