Version 4
SHEET 1 880 680
WIRE -144 176 -144 160
WIRE -144 224 -144 176
WIRE -144 432 -144 288
WIRE -112 176 -144 176
WIRE -112 288 -112 176
WIRE -112 400 -112 368
WIRE -80 32 -96 32
WIRE -80 64 -80 32
WIRE -80 336 -80 144
WIRE -48 224 -48 208
WIRE -48 464 -48 288
WIRE -48 480 -48 464
WIRE -16 432 -144 432
WIRE -16 432 -16 304
WIRE 0 144 0 64
WIRE 0 384 0 240
WIRE 16 144 0 144
WIRE 16 176 -112 176
WIRE 16 208 -48 208
WIRE 16 240 0 240
WIRE 16 304 -16 304
WIRE 16 336 -80 336
WIRE 32 384 0 384
WIRE 32 464 -48 464
WIRE 32 464 32 384
WIRE 96 64 0 64
WIRE 96 432 -16 432
WIRE 256 64 176 64
WIRE 256 336 240 336
WIRE 256 336 256 64
WIRE 272 32 -80 32
WIRE 272 144 240 144
WIRE 272 144 272 32
WIRE 272 208 240 208
WIRE 272 320 272 208
WIRE 272 432 176 432
WIRE 272 432 272 320
WIRE 288 144 272 144
WIRE 288 176 240 176
WIRE 288 240 240 240
WIRE 288 384 32 384
WIRE 288 384 288 240
WIRE 304 272 240 272
WIRE 304 400 -112 400
WIRE 304 400 304 272
WIRE 352 208 272 208
WIRE 352 304 240 304
WIRE 352 304 352 288
WIRE 368 320 272 320
WIRE 368 352 368 320
WIRE 368 464 32 464
WIRE 368 464 368 432
WIRE 384 176 368 176
WIRE 384 208 352 208
WIRE 384 208 384 176
WIRE 400 144 368 144
WIRE 400 304 352 304
WIRE 400 304 400 144
FLAG -48 480 0
FLAG -96 32 Cuad
IOPIN -96 32 Out
FLAG -144 160 Tri
IOPIN -144 160 Out
SYMBOL voltage 368 336 R0
WINDOW 0 -35 9 Left 0
WINDOW 3 -15 59 Left 0
WINDOW 123 0 0 Left 0
SYMATTR InstName V1
SYMATTR Value 5V
SYMATTR SpiceLine Rser=1 Cpar=100n
SYMBOL LM359N 128 256 R0
SYMATTR InstName U1
SYMBOL res 192 48 R90
WINDOW 0 42 72 VRight 0
WINDOW 3 43 19 VRight 0
SYMATTR InstName R1
SYMATTR Value 6K2
SYMATTR SpiceLine tol=1 pwr=0.1
SYMBOL res 384 160 R90
WINDOW 0 15 104 VBottom 0
WINDOW 3 18 105 VTop 0
SYMATTR InstName R2
SYMATTR Value 12K
SYMATTR SpiceLine tol=1 pwr=0.1
SYMBOL cap -64 224 R0
WINDOW 0 22 12 Left 0
WINDOW 3 21 53 Left 0
SYMATTR InstName C1
SYMATTR Value 33p
SYMBOL res 192 416 R90
WINDOW 0 17 108 VBottom 0
WINDOW 3 -12 3 VTop 0
SYMATTR InstName R3
SYMATTR Value 6K8
SYMATTR SpiceLine tol=1 pwr=0.1
SYMBOL cap -160 224 R0
WINDOW 0 -20 8 Left 0
WINDOW 3 -41 62 Left 0
SYMATTR InstName C2
SYMATTR Value 250p
SYMBOL res 384 128 R90
WINDOW 0 -2 89 VBottom 0
WINDOW 3 -29 15 VTop 0
SYMATTR InstName R4
SYMATTR Value 2K5
SYMATTR SpiceLine tol=1 pwr=0.1
SYMBOL res 336 192 R0
WINDOW 0 25 48 Left 0
WINDOW 3 18 98 Left 0
SYMATTR InstName R5
SYMATTR Value 2K2
SYMATTR SpiceLine tol=1 pwr=0.1
SYMBOL res -128 272 R0
WINDOW 0 31 75 Left 0
WINDOW 3 24 98 Left 0
SYMATTR InstName R6
SYMATTR Value 430
SYMATTR SpiceLine tol=1 pwr=0.1
SYMBOL res -96 48 R0
WINDOW 0 40 48 Left 0
WINDOW 3 39 98 Left 0
SYMATTR InstName R7
SYMATTR Value 2K2
SYMATTR SpiceLine tol=1 pwr=0.1
TEXT -154 450 Left 0 !.tran 20u
TEXT 320 112 Left 0 ;F
TEXT -72 240 Left 0 ;F
TEXT -56 120 Left 0 ;Sim
