Version 4
SHEET 1 880 680
WIRE -304 384 -304 368
WIRE -304 496 -304 464
WIRE -288 208 -288 128
WIRE -256 368 -304 368
WIRE -256 368 -256 352
WIRE -256 448 -256 368
WIRE -240 368 -256 368
WIRE -240 448 -256 448
WIRE -208 128 -288 128
WIRE -208 208 -208 128
WIRE -208 288 -208 208
WIRE -192 208 -208 208
WIRE -192 288 -208 288
WIRE -160 368 -176 368
WIRE -160 448 -176 448
WIRE -160 448 -160 368
WIRE -128 368 -160 368
WIRE -128 384 -128 368
WIRE -128 480 -128 464
WIRE -112 128 -208 128
WIRE -112 208 -128 208
WIRE -112 288 -128 288
WIRE -112 288 -112 208
WIRE -80 208 -112 208
WIRE -80 240 -80 208
WIRE -80 336 -80 320
WIRE -80 480 -128 480
WIRE -80 480 -80 336
WIRE -48 336 -80 336
WIRE -48 368 -48 336
WIRE -48 496 -304 496
WIRE -48 496 -48 448
WIRE 0 368 0 272
WIRE 0 496 -48 496
WIRE 0 496 0 368
WIRE 16 432 16 176
WIRE 32 176 16 176
WIRE 32 208 -80 208
WIRE 32 272 0 272
WIRE 32 336 -48 336
WIRE 32 368 0 368
WIRE 112 432 16 432
WIRE 272 128 -32 128
WIRE 272 304 256 304
WIRE 272 304 272 128
WIRE 272 368 256 368
WIRE 272 432 192 432
WIRE 272 432 272 368
WIRE 304 128 272 128
WIRE 304 304 272 304
WIRE 304 384 304 304
WIRE 304 496 0 496
WIRE 304 496 304 464
WIRE 304 512 304 496
WIRE 336 272 256 272
WIRE 336 336 256 336
WIRE 336 336 336 272
WIRE 368 368 272 368
WIRE 368 400 368 368
WIRE 368 496 304 496
WIRE 368 496 368 480
WIRE 400 240 256 240
WIRE 400 256 400 240
WIRE 400 336 336 336
WIRE 400 336 400 320
WIRE 400 432 400 336
WIRE 416 128 384 128
WIRE 416 176 256 176
WIRE 416 176 416 128
WIRE 448 128 416 128
WIRE 448 160 448 128
WIRE 448 240 400 240
WIRE 448 336 448 240
WIRE 448 432 400 432
WIRE 448 432 448 416
WIRE 448 496 368 496
WIRE 448 496 448 432
FLAG 304 512 0
FLAG -288 208 out1
IOPIN -288 208 Out
FLAG -256 352 In
IOPIN -256 352 In
FLAG 448 160 out2
IOPIN 448 160 Out
SYMBOL Var\\LM359N 144 288 R0
SYMATTR InstName U1
SYMBOL res -112 480 R180
WINDOW 0 5 63 Right 0
WINDOW 3 13 25 Right 0
SYMATTR InstName R1
SYMATTR Value 100
SYMATTR SpiceLine tol=1 pwr=0.1
SYMBOL res -64 352 R0
WINDOW 0 25 48 Left 0
WINDOW 3 23 85 Left 0
SYMATTR InstName R2
SYMATTR Value 360
SYMATTR SpiceLine tol=1 pwr=0.1
SYMBOL cap -176 352 R90
WINDOW 0 42 59 VBottom 0
WINDOW 3 18 5 VTop 0
SYMATTR InstName C1
SYMATTR Value 10n
SYMBOL polcap -176 432 R90
WINDOW 0 18 61 VBottom 0
WINDOW 3 16 -3 VTop 0
SYMATTR InstName C2
SYMATTR Value 100µ
SYMATTR Description Capacitor
SYMATTR Type cap
SYMATTR SpiceLine V=16 Irms=265m Rser=0.35 MTBF=2000 Lser=0 mfg="Nichicon" pn="UPL1C101MPH" type="Al electrolytic" ppPkg=1
SYMBOL res -96 224 R0
WINDOW 0 33 47 Left 0
WINDOW 3 30 85 Left 0
SYMATTR InstName R3
SYMATTR Value 3K3
SYMATTR SpiceLine tol=1 pwr=0.1
SYMBOL res 208 416 R90
WINDOW 0 45 73 VRight 0
WINDOW 3 46 19 VRight 0
SYMATTR InstName R4
SYMATTR Value 8k2
SYMATTR SpiceLine tol=1 pwr=0.1
SYMBOL res 352 384 R0
WINDOW 0 -25 -1 Left 0
WINDOW 3 -35 97 Left 0
SYMATTR InstName R5
SYMATTR Value 8k2
SYMATTR SpiceLine tol=1 pwr=0.1
SYMBOL voltage -304 368 R0
WINDOW 0 -14 60 Left 0
WINDOW 3 9 -168 Invisible 0
WINDOW 39 0 0 Left 0
SYMATTR InstName V1
SYMATTR Value SINE(0 .1 1e7)
SYMATTR Value2 AC 1 0
SYMBOL voltage 448 320 R0
WINDOW 0 -45 96 Left 0
WINDOW 3 -21 59 Left 0
WINDOW 123 0 0 Left 0
SYMATTR InstName V2
SYMATTR Value 12V
SYMATTR SpiceLine Rser=1
SYMBOL cap 384 256 R0
WINDOW 0 -19 1 Left 0
WINDOW 3 -40 63 Left 0
SYMATTR InstName C4
SYMATTR Value 100n
SYMBOL cap -128 192 R90
WINDOW 0 15 58 VBottom 0
WINDOW 3 -10 0 VTop 0
SYMATTR InstName C3
SYMATTR Value 10n
SYMBOL polcap -128 272 R90
WINDOW 0 16 62 VBottom 0
WINDOW 3 -31 17 VTop 0
SYMATTR InstName C5
SYMATTR Value 100µ
SYMATTR Description Capacitor
SYMATTR Type cap
SYMATTR SpiceLine V=16 Irms=265m Rser=0.35 MTBF=2000 Lser=0 mfg="Nichicon" pn="UPL1C101MPH" type="Al electrolytic" ppPkg=1
SYMBOL res -16 112 R90
WINDOW 0 45 73 VRight 0
WINDOW 3 46 19 VRight 0
SYMATTR InstName R6
SYMATTR Value 100
SYMATTR SpiceLine tol=1 pwr=0.1
SYMBOL res 288 368 R0
WINDOW 0 -37 82 Left 0
WINDOW 3 -50 108 Left 0
SYMATTR InstName R7
SYMATTR Value 360
SYMATTR SpiceLine tol=1 pwr=0.1
SYMBOL res 400 112 R90
WINDOW 0 45 73 VRight 0
WINDOW 3 46 19 VRight 0
SYMATTR InstName R8
SYMATTR Value 3k3
SYMATTR SpiceLine tol=1 pwr=0.1
TEXT 14 514 Left 0 !.ac dec 10 10 1e8
