Version 4
SHEET 1 1080 844
WIRE -96 240 -96 208
WIRE -96 432 -96 416
WIRE 16 416 -96 416
WIRE -96 416 -96 320
WIRE -96 208 16 208
WIRE 16 336 16 208
FLAG -96 432 0
SYMBOL voltage -96 224 R0
WINDOW 123 0 0 Left 0
WINDOW 39 0 0 Left 0
SYMATTR InstName V1
SYMATTR Value 1
SYMBOL Z:\\Jims\ circuits\\Monte\ carlo\ toolbox\\R_mc_1 0 320 R0
SYMATTR InstName R2
SYMATTR SpiceModel R_worstcase_4
TEXT 176 272 Left 0 !.step param run 1 100 1
TEXT 174 298 Left 0 !.op
TEXT -112 496 Left 0 ;Use drop down list to select Monte Carlo distribution type: from RMC.lib\nRMC.lib is automatically included with this symbol (R_mc_1).\nsubckt 1 to 10 are repeats of named subckts for use with parametised switch {M}\nM=0 Min tolerance value\nM=1 Nomonal tolerance value\nM=2 Max tolerance value\nM=3 Uniform  distribution of values\nM=4 Worst case distribution of values\nM=5 Gausian distribution (average of 5)\nM=10 Gausian distribution (average of 10)
