Version 4
SHEET 1 1268 1452
WIRE -512 368 -512 336
WIRE -512 256 -512 240
WIRE -512 240 -400 240
WIRE -176 240 96 240
WIRE 96 336 96 368
WIRE -176 240 -176 272
WIRE -176 352 -176 368
WIRE -320 240 -176 240
WIRE 96 240 192 240
WIRE 96 240 96 272
FLAG -512 368 0
FLAG 96 368 0
FLAG -176 368 0
FLAG 192 240 out
IOPIN 192 240 Out
SYMBOL voltage -512 240 R0
SYMATTR InstName V1
SYMATTR Value AC 1
SYMBOL I:\\LTC\\SwCADIII\\Jims\ circuits\\Monte\ carlo\ toolbox\\c_mc_1 80 272 R0
SYMATTR InstName C1
SYMATTR SpiceLine C=1.8p Tol=10 seed=3
SYMATTR SpiceModel C_uniform_3
SYMBOL I:\\LTC\\SwCADIII\\Jims\ circuits\\Monte\ carlo\ toolbox\\r_mc_1 -416 256 R270
WINDOW 0 23 56 VTop 0
WINDOW 38 8 56 VBottom 0
WINDOW 39 -14 65 VBottom 0
SYMATTR InstName R1
SYMATTR SpiceModel R_Gausian_5
SYMATTR SpiceLine R=10k Tol=1 Seed=1
SYMBOL I:\\LTC\\SwCADIII\\Jims\ circuits\\Monte\ carlo\ toolbox\\l_mc_1 -192 256 R0
SYMATTR InstName L1
SYMATTR SpiceLine L=100u Tol=10 seed=2
SYMATTR SpiceModel L_worstcase_4
TEXT -216 440 Left 0 !.ac oct 100 1MEG 100Meg
TEXT -360 80 Left 0 ;Effecting a Monte Carlo calculation in LTspice\nThese LCR symbols allow tolerance distribution to be selected by drop down menu for each instatance.
TEXT -208 416 Left 0 !.step param run 1 20 1
