Version 4
SHEET 1 880 680
WIRE 576 64 144 64
WIRE 144 80 144 64
WIRE -448 112 -528 112
WIRE -448 128 -448 112
WIRE 144 176 144 160
WIRE 192 176 144 176
WIRE 272 176 256 176
WIRE 304 176 272 176
WIRE 416 176 384 176
WIRE 496 176 416 176
WIRE 512 176 496 176
WIRE 144 192 144 176
WIRE 512 192 512 176
WIRE 272 208 272 176
WIRE 416 208 416 176
WIRE 224 240 192 240
WIRE -448 256 -448 192
WIRE -416 256 -448 256
WIRE -304 256 -352 256
WIRE -144 256 -272 256
WIRE -80 256 -144 256
WIRE -48 256 -80 256
WIRE 32 256 16 256
WIRE 96 256 32 256
WIRE -144 272 -144 256
WIRE 32 272 32 256
WIRE -272 288 -272 256
WIRE 224 288 224 240
WIRE 272 288 272 272
WIRE 336 288 272 288
WIRE 416 288 416 272
WIRE 416 288 336 288
WIRE 512 288 512 272
WIRE 512 288 416 288
WIRE 336 304 336 288
WIRE -448 352 -448 256
WIRE -416 352 -448 352
WIRE -528 368 -528 112
WIRE -336 368 -336 352
WIRE -304 368 -304 256
WIRE -304 368 -336 368
WIRE -272 368 -272 352
WIRE -272 368 -304 368
WIRE -448 384 -448 352
WIRE -272 384 -272 368
WIRE -144 384 -144 352
WIRE 112 384 112 304
WIRE 112 384 -144 384
WIRE 224 384 224 368
WIRE 576 384 576 64
WIRE 576 384 224 384
WIRE -144 400 -144 384
WIRE -80 400 -80 256
WIRE 224 400 224 384
WIRE 32 432 32 352
WIRE 80 432 32 432
WIRE 80 464 80 432
WIRE -528 496 -528 448
WIRE -448 496 -448 464
WIRE -448 496 -528 496
WIRE -272 496 -272 448
WIRE -272 496 -448 496
WIRE -144 496 -144 480
WIRE -144 496 -272 496
WIRE -80 496 -80 464
WIRE -80 496 -144 496
WIRE 32 496 32 432
WIRE 32 496 -80 496
WIRE 224 496 224 480
WIRE 224 496 32 496
FLAG 336 304 0
FLAG 80 464 0
FLAG 496 176 Out
SYMBOL cap 16 240 R90
WINDOW 0 58 73 VBottom 0
WINDOW 3 32 32 VTop 0
SYMATTR InstName C1
SYMATTR Value 10p
SYMBOL res 16 256 R0
SYMATTR InstName R1
SYMATTR Value 47K
SYMATTR SpiceLine tol=1 pwr=0.1
SYMBOL ind -128 256 M0
SYMATTR InstName Ls
SYMATTR Value 450n
SYMATTR SpiceLine Ipk=0.4 Rser=0.26 Rpar=0 Cpar=0 mfg="Coilcraft" pn="0603PS-102M"
SYMBOL ind -128 384 M0
SYMATTR InstName Lp
SYMATTR Value 50n
SYMATTR SpiceLine Ipk=16 Rser=0.0021 Rpar=275 Cpar=2.6p mfg="Wurth Elektronik  eiSos" pn="744 312 025"
SYMBOL cap -288 288 R0
WINDOW 3 24 52 Left 0
SYMATTR Value 15p
SYMATTR InstName C2
SYMBOL ind -432 368 R270
WINDOW 0 32 56 VTop 0
WINDOW 3 5 56 VBottom 0
SYMATTR InstName L1
SYMATTR Value 10µ
SYMATTR SpiceLine Ipk=0.5 Rser=0.375 Rpar=0 Cpar=0 mfg="Coiltronics" pn="CTX100-1"
SYMBOL cap -352 240 R90
WINDOW 0 58 72 VBottom 0
WINDOW 3 32 32 VTop 0
SYMATTR InstName C3
SYMATTR Value 10n
SYMBOL res -464 368 R0
SYMATTR InstName R2
SYMATTR Value 47K
SYMATTR SpiceLine tol=1 pwr=0.1
SYMBOL ind 128 64 R0
WINDOW 0 -51 42 Left 0
WINDOW 3 -52 83 Left 0
SYMATTR InstName L2
SYMATTR Value 10µ
SYMATTR SpiceLine Ipk=0.5 Rser=0.1 Rpar=0 Cpar=0
SYMBOL cap 256 160 R90
WINDOW 0 0 32 VBottom 0
WINDOW 3 32 32 VTop 0
SYMATTR InstName C4
SYMATTR Value 33p
SYMBOL ind 288 192 R270
WINDOW 0 35 15 VTop 0
WINDOW 3 62 85 VBottom 0
SYMATTR InstName Lout
SYMATTR Value 500n
SYMATTR SpiceLine Ipk=0.4 Rser=0.26 Rpar=0 Cpar=0 mfg="Coilcraft" pn="0603PS-102M"
SYMBOL cap 256 208 R0
WINDOW 0 26 15 Left 0
WINDOW 3 48 37 Left 0
SYMATTR InstName CTrim2
SYMATTR Value 5p
SYMBOL cap 400 208 R0
WINDOW 0 25 -7 Left 0
WINDOW 3 48 32 Left 0
SYMATTR InstName CTrim3
SYMATTR Value 10p
SYMBOL res 208 272 R0
SYMATTR InstName R3
SYMATTR Value 6K8
SYMATTR SpiceLine tol=1 pwr=0.1
SYMBOL voltage 224 384 R0
WINDOW 3 -21 59 Left 0
WINDOW 123 0 0 Left 0
SYMATTR Value 125
SYMATTR InstName V1
SYMATTR SpiceLine Rser=1 Cpar=1u
SYMBOL cap -96 400 R0
WINDOW 0 23 13 Left 0
SYMATTR InstName CTrim1
SYMATTR Value 2p
SYMBOL voltage -528 352 R0
WINDOW 0 -14 59 Left 0
WINDOW 3 24 104 Invisible 0
WINDOW 123 0 0 Left 0
WINDOW 39 0 0 Left 0
SYMATTR InstName V2
SYMATTR Value SINE(15 10 20k)
SYMBOL cap -432 128 M0
SYMATTR InstName C8
SYMATTR Value 10n
SYMBOL res 496 176 R0
WINDOW 0 37 48 Left 0
WINDOW 3 40 84 Left 0
SYMATTR InstName R4
SYMATTR Value 47
SYMATTR SpiceLine tol=1 pwr=0.1
SYMBOL varactor -256 448 R180
WINDOW 0 39 30 Left 0
WINDOW 3 22 -15 Left 0
SYMATTR InstName D1
SYMATTR Value MV2201
SYMBOL Valve\\Tetrode 144 240 R0
WINDOW 0 -62 -54 Left 0
WINDOW 38 13 87 Center 0
SYMATTR InstName U1
SYMATTR SpiceModel 6BQ5D
TEXT 304 416 Left 0 !.tran 0 5u 4u5 100p
TEXT -368 48 Left 0 ;Lp+Ls=\n5 vueltas Cu esm de Ø=1mm\ncon toma en la 2º vuelta, en\nuna forma de Ø=10mm. Lout\nes igual, pero sin derivación.\nLas otras bobinas son chokes\ncomerciales del valor indicado.
