Version 4
SHEET 1 1364 680
WIRE -272 -304 -304 -304
WIRE -64 -304 -272 -304
WIRE 336 -304 304 -304
WIRE -304 -240 -304 -304
WIRE -64 -224 -64 -304
WIRE 32 -224 -64 -224
WIRE 336 -224 336 -304
WIRE 432 -224 336 -224
WIRE 32 -128 -64 -128
WIRE 432 -128 336 -128
WIRE -304 -80 -304 -160
WIRE -64 -80 -64 -128
WIRE 336 -80 336 -128
FLAG -64 -80 0
FLAG -304 -80 0
FLAG -272 -304 in
FLAG 336 -80 0
FLAG 304 -304 in
SYMBOL voltage -304 -256 R0
WINDOW 123 47 69 Left 0
WINDOW 39 0 0 Left 0
SYMATTR Value2 AC 1
SYMATTR InstName V1
SYMATTR Value 0
SYMBOL EL_SPEAKER 80 -176 R0
SYMATTR Value ELS100
SYMATTR InstName U1
SYMBOL EL_SPEAKER 480 -176 R0
SYMATTR Value ELS100ri
SYMATTR InstName U2
TEXT -328 -392 Left 0 !.ac dec 100 100 100k
TEXT -32 -160 Left 0 ;Z
TEXT -328 -496 Left 0 ;Using a Z(freq) table\n \nAll in blue text is just comment.
TEXT 40 -296 Left 0 ;Z(freq)
TEXT 120 -424 Left 0 ;.include EL_SPEAKERS1.lib
TEXT -96 0 Left 0 !.subckt ELS100 1 2 \nR1 1 10  0.001\nV1 10 11 0\nB1 11 2 V=I(V1)  MAG FREQ=\n+ 1e2, 0.893, -26.7 \n+ 1e3, 0.705, -45.2 \n+ 1e4, 0.37, -68.3 \n+ 1e5, 0.195, -78.7\n.ends
TEXT 368 -160 Left 0 ;Z
TEXT 440 -296 Left 0 ;Z(freq)
TEXT 320 0 Left 0 !.subckt ELS100ri 1 2 \nR1 1 10  0.001\nV1 10 11 0\nB1 11 2 V=I(V1)  R_I FREQ=\n+ 1e2, 0.7977806 ,  -0.4012419 \n+ 1e3,  0.4967671, -0.5002474\n+ 1e4, 0.1368063, -0.3437791\n+ 1e5, 0.0382095, -0.1912199\n.ends
TEXT 128 -496 Left 0 ;Use a ".include"-comamnd line \nif you have the subcircuits in a file.
LINE Normal 8 -192 -56 -192
LINE Normal -8 -208 8 -192
LINE Normal -8 -208 -8 -208
LINE Normal 8 -192 -8 -208
LINE Normal -8 -176 8 -192
LINE Normal -8 -176 -8 -176
LINE Normal 408 -192 344 -192
LINE Normal 392 -208 408 -192
LINE Normal 392 -208 392 -208
LINE Normal 408 -192 392 -208
LINE Normal 392 -176 408 -192
LINE Normal 392 -176 392 -176
