Version 4
SHEET 1 2852 696
WIRE 352 -1280 224 -1280
WIRE -976 -1264 -1040 -1264
WIRE 352 -1248 224 -1248
WIRE 352 -1216 224 -1216
WIRE -976 -1200 -1040 -1200
WIRE 352 -1184 224 -1184
WIRE 352 -1152 224 -1152
WIRE -1008 -1136 -1072 -1136
WIRE -64 -1120 -112 -1120
WIRE 352 -1120 224 -1120
WIRE 352 -1088 224 -1088
WIRE 352 -1056 224 -1056
WIRE 352 -1024 224 -1024
WIRE -64 -992 -96 -992
WIRE 352 -992 224 -992
WIRE -976 -976 -1040 -976
WIRE 352 -960 224 -960
WIRE -976 -928 -976 -976
WIRE 352 -928 224 -928
WIRE 352 -896 224 -896
WIRE 352 -864 224 -864
WIRE -656 -832 -656 -848
WIRE 352 -832 224 -832
WIRE -976 -816 -976 -848
WIRE -896 -816 -976 -816
WIRE -704 -816 -896 -816
WIRE -976 -800 -976 -816
WIRE 352 -800 224 -800
WIRE -976 -688 -976 -720
WIRE -48 -512 -128 -512
WIRE 304 -512 208 -512
WIRE 64 -400 64 -432
WIRE 64 -400 -112 -400
FLAG -112 -400 clock
IOPIN -112 -400 In
FLAG 304 -512 OUTSH
FLAG -976 -688 0
FLAG -1040 -976 VDD
FLAG -128 -512 Vin
IOPIN -128 -512 In
FLAG -1040 -1264 Vrefm
IOPIN -1040 -1264 In
FLAG -1040 -1200 Vrefp
IOPIN -1040 -1200 In
FLAG 64 -608 VDD
FLAG -896 -816 V1
FLAG 640 -1024 B1
IOPIN 640 -1024 Out
FLAG 640 -960 B0
IOPIN 640 -960 Out
FLAG -656 -752 0
FLAG -656 -848 Vref_fine
FLAG -704 -768 0
FLAG -96 -992 Vrefm
FLAG 80 -1312 VDD
FLAG 80 -768 Vfold
IOPIN 80 -768 Out
FLAG -1072 -1136 VDD
IOPIN -1072 -1136 In
FLAG 512 -768 Vref_fine
FLAG 464 -768 0
FLAG 560 -768 Vfold
FLAG 512 -1312 VDD
FLAG 640 -1152 B3
IOPIN 640 -1152 Out
FLAG 640 -1088 B2
IOPIN 640 -1088 Out
FLAG -112 -1120 OUTSH
SYMBOL Sample_and_hold -32 -448 R0
SYMATTR InstName U10
SYMBOL res -992 -944 R0
WINDOW 3 82 39 Left 0
SYMATTR Value 1500MEG
SYMATTR InstName R15
SYMBOL res -992 -816 R0
WINDOW 3 82 39 Left 0
SYMATTR Value 100MEG
SYMATTR InstName R17
SYMBOL e -656 -848 R0
SYMATTR InstName E2
SYMATTR Value 1
SYMBOL 4_bit_fine_ADC_LSB 512 -992 R0
SYMATTR InstName X2
SYMBOL 4bit_folder 0 -912 R0
SYMATTR InstName X1
TEXT 0 -304 Left 0 ;Sample and Hold
TEXT -1040 -624 Left 0 ;Setup reference voltage for fine ADC\nsimply VDD divided by 2^N/2 (here 16)
