Version 4
SHEET 1 1204 680
WIRE 400 0 384 0
WIRE 592 0 400 0
WIRE 720 0 672 0
WIRE 400 80 400 0
WIRE 720 80 720 0
WIRE 0 96 -112 96
WIRE 352 112 320 112
WIRE -112 128 -112 96
WIRE 400 224 400 144
WIRE 496 224 400 224
WIRE 720 224 720 160
WIRE 720 224 496 224
WIRE -112 256 -112 208
WIRE 400 256 400 224
FLAG -112 256 0
FLAG 0 96 TEMP1
FLAG 320 112 TEMP1
FLAG 384 0 V+
FLAG 496 224 V-
FLAG 400 256 0
SYMBOL voltage -112 112 R0
WINDOW 123 0 0 Left 0
WINDOW 39 0 0 Left 0
SYMATTR InstName VTEMP
SYMATTR Value PWL(0 27 1u 27 1.1u 37)
SYMBOL res 688 -16 R90
WINDOW 0 0 56 VBottom 0
WINDOW 3 32 56 VTop 0
SYMATTR InstName R1
SYMATTR Value 5k
SYMBOL Misc\\battery 720 64 R0
WINDOW 123 0 0 Left 0
WINDOW 39 0 0 Left 0
SYMATTR InstName VBAT
SYMATTR Value PULSE(9 14 50u 10n 10n 100u 200u)
SYMBOL lm335x 384 80 R0
SYMATTR InstName X1
TEXT -120 -56 Left 0 !.op
TEXT -120 -96 Left 0 ;.tran 0 100u 0 .1u
TEXT -120 -8 Left 0 !.dc VTEMP list 0 22.5
TEXT -120 24 Left 0 ;.dc VBAT -5 5 .1
