Version 4
SHEET 1 4432 680
WIRE 2096 -320 1920 -320
WIRE 2528 -320 2096 -320
WIRE 1008 -304 832 -304
WIRE 1440 -304 1008 -304
WIRE 2528 -304 2528 -320
WIRE 1440 -288 1440 -304
WIRE 2096 -288 2096 -320
WIRE 1008 -272 1008 -304
WIRE 1920 -272 1920 -320
WIRE 832 -256 832 -304
WIRE 2096 -112 2096 -208
WIRE 2160 -112 2096 -112
WIRE 2240 -112 2160 -112
WIRE 1008 -96 1008 -192
WIRE 1088 -96 1008 -96
WIRE 1152 -96 1088 -96
WIRE 2528 -80 2528 -224
WIRE 2848 -80 2608 -80
WIRE 1440 -64 1440 -208
WIRE 1760 -64 1520 -64
WIRE 2240 -32 2240 -112
WIRE 1152 -16 1152 -96
WIRE 2848 0 2848 -80
WIRE 1760 16 1760 -64
WIRE 2528 32 2528 -80
WIRE 2528 32 2496 32
WIRE 1440 48 1440 -64
WIRE 1440 48 1408 48
WIRE 2096 48 2096 -112
WIRE 2096 48 2064 48
WIRE 1008 64 1008 -96
WIRE 1008 64 976 64
WIRE 2528 128 2496 128
WIRE 1440 144 1408 144
WIRE 2240 144 2240 48
WIRE 1152 160 1152 64
WIRE 2528 176 2528 128
WIRE 2848 176 2848 80
WIRE 1440 192 1440 144
WIRE 1760 192 1760 96
WIRE 2000 192 2000 96
WIRE 912 208 912 112
FLAG 832 -176 0
FLAG 1440 192 0
FLAG 1760 192 0
FLAG 1760 -64 CE
FLAG 912 208 0
FLAG 1152 160 0
FLAG 1920 -192 0
FLAG 2528 176 0
FLAG 2848 176 0
FLAG 2848 -80 EC
FLAG 2000 192 0
FLAG 2240 144 0
FLAG 1088 -96 CB
FLAG 2160 -112 EB
SYMBOL res 1424 -304 R0
SYMATTR InstName R2
SYMATTR Value 300k
SYMBOL voltage 832 -272 R0
WINDOW 123 0 0 Left 2
WINDOW 39 0 0 Left 2
SYMATTR InstName V1
SYMATTR Value 300
SYMBOL KT342A_Avalanche 1376 96 R0
SYMATTR InstName X1
SYMBOL res 1536 -80 R90
WINDOW 0 0 56 VBottom 2
WINDOW 3 32 56 VTop 2
SYMATTR InstName R1
SYMATTR Value 100k
SYMBOL res 1744 0 R0
SYMATTR InstName R3
SYMATTR Value 10Meg
SYMBOL res 992 -288 R0
SYMATTR InstName R4
SYMATTR Value 1Meg
SYMBOL KT342A_Avalanche 944 112 R0
SYMATTR InstName X2
SYMBOL res 1136 -32 R0
SYMATTR InstName R5
SYMATTR Value 10Meg
SYMBOL res 2512 -320 R0
SYMATTR InstName R6
SYMATTR Value 300k
SYMBOL voltage 1920 -288 R0
WINDOW 123 0 0 Left 2
WINDOW 39 0 0 Left 2
SYMATTR InstName V2
SYMATTR Value 30
SYMBOL KT342A_Avalanche 2464 80 M180
SYMATTR InstName X3
SYMBOL res 2624 -96 R90
WINDOW 0 0 56 VBottom 2
WINDOW 3 32 56 VTop 2
SYMATTR InstName R7
SYMATTR Value 100k
SYMBOL res 2832 -16 R0
SYMATTR InstName R8
SYMATTR Value 10Meg
SYMBOL res 2080 -304 R0
SYMATTR InstName R9
SYMATTR Value 300k
SYMBOL KT342A_Avalanche 2032 96 M180
SYMATTR InstName X4
SYMBOL res 2224 -48 R0
SYMATTR InstName R10
SYMATTR Value 10Meg
TEXT 936 352 Left 2 !.tran 0 25u 24u uic
TEXT 936 400 Left 4 !.options reltol=0.01m vntol=10m abstol=1n
TEXT 1232 -344 Left 2 ;kt342a_avalanche
TEXT 1840 24 Left 2 ;Voltmeter
TEXT 1232 -8 Left 2 ;Voltmeter
TEXT 2928 8 Left 2 ;Voltmeter
TEXT 2320 -24 Left 2 ;Voltmeter
TEXT 1192 336 Left 4 ;Alternate
RECTANGLE Normal 1824 -16 1696 128 2
RECTANGLE Normal 1216 -48 1088 96 2
RECTANGLE Normal 2912 -32 2784 112 2
RECTANGLE Normal 2304 -64 2176 80 2
