Version 4
SHEET 1 2064 1072
WIRE -96 176 -96 144
WIRE 48 144 -96 144
WIRE 112 336 112 288
WIRE 144 144 48 144
WIRE 144 288 112 288
WIRE 368 192 336 192
WIRE 368 288 336 288
WIRE 368 288 368 192
WIRE 368 336 368 288
WIRE 384 240 336 240
WIRE 400 144 336 144
WIRE 496 144 400 144
WIRE 496 192 496 144
WIRE 640 144 496 144
WIRE 640 176 640 144
WIRE 816 256 816 240
WIRE 848 144 640 144
WIRE 848 240 816 240
WIRE 992 240 976 240
WIRE 992 256 992 240
WIRE 1024 144 976 144
WIRE 1136 144 1024 144
WIRE 1264 144 1216 144
WIRE 1264 176 1264 144
WIRE 1376 144 1264 144
WIRE 1376 192 1376 144
WIRE 1392 144 1376 144
FLAG -96 256 0
FLAG 48 144 el_in
FLAG 640 256 0
FLAG 496 256 0
FLAG 1264 256 0
FLAG 112 336 0
FLAG 368 336 0
FLAG 816 256 0
FLAG 992 256 0
FLAG 400 144 speed1
FLAG 384 240 Pos1
IOPIN 384 240 Out
FLAG 1024 144 speed2
FLAG 1392 144 speed3
FLAG 1376 256 0
SYMBOL current -96 256 R180
WINDOW 0 -102 71 Left 0
WINDOW 3 -200 -41 Left 0
WINDOW 123 0 0 Left 0
WINDOW 39 0 0 Left 0
SYMATTR InstName Isupply
SYMATTR Value PULSE(0 1A 1n 1m 1m)
SYMBOL res 624 160 R0
SYMATTR InstName Rcoul1
SYMATTR Value {1/Bload}
SYMBOL cap 480 192 R0
WINDOW 3 49 47 Left 0
SYMATTR Value {Jload}
SYMATTR InstName Cinertia1
SYMBOL current 1264 176 R0
WINDOW 3 -966 -94 Left 0
WINDOW 123 -32 40 VBottom 0
WINDOW 39 -32 40 VBottom 0
SYMATTR Value TBL({-epsv1} {-Ffr} {-(epsv0+epsv1)/2} {-Frel} {-epsv0} {-Frel} 0 0 {epsv0} {Frel} {(epsv0+epsv1)/2} {Frel} {epsv1} {Ffr})
SYMATTR InstName Ifric1
SYMBOL _MySymbols\\DC_Motor 240 208 R0
SYMATTR InstName U1
SYMATTR SpiceModel DC_Motor
SYMBOL _MySymbols\\gear2 912 192 R0
WINDOW 38 73 -15 Left 0
WINDOW 3 73 16 Left 0
SYMATTR SpiceModel DC_xfrmr
SYMATTR Value ratio=0.5
SYMATTR InstName U2
SYMBOL ind 1120 160 R270
WINDOW 0 32 56 VTop 0
WINDOW 3 5 56 VBottom 0
SYMATTR InstName Lspring
SYMATTR Value {1/spring1}
SYMBOL cap 1360 192 R0
WINDOW 3 49 47 Left 0
SYMATTR Value {Jload2}
SYMATTR InstName Cinertia2
TEXT -120 408 Left 0 !;e1, e2 : electrical input\n;m1, m2 : mechanical output V(m1,m2) = rad/sec\n;              current through m1, m2 = load torque in Nm\n;mpos1 mpos2 : V(mpos1,mpos2) = angular position/rad\n;                         short these pins if not needed\n.subckt DC_MOTOR e1 e2 m1 m2 mpos1 mpos2\n;---electrical:\nLm e1 2 {LA}\nRm 2 3 {RA}\nE_EMF 3 4 m1 m2 {Kemf}\nVsense 4 e2 0\n;---mechanical:\nF_TORQUE m2 m1 Vsense {Ktorque}\nCjm m1 m2 {Jm}\nRinternal_frict m1 m2 {1/BM} ;coulomb friction\n;dry friction:\nIfric m1 m2 TBL({-epsv1} {-Fdm} {-(epsv0+epsv1)/2} {-Fdrm} {-epsv0} {-Fdrm} 0 0 {epsv0} {Fdrm} {(epsv0+epsv1)/2} {Fdrm} {epsv1} {Fdm})\n;--integration of velocity -> angular position/rad:\nGpos mpos2 mpos1 m1 m2 1\nCpos mpos1 mpos2 1\n.ends
TEXT 94 -432 Left 0 !.tran 10
TEXT -104 -432 Left 0 ;DC Motor Test
TEXT -104 -392 Left 0 !;Motor Parameters, Faulhaber 2342 S 012CR,  12V, 17Wmech, 16mNm, max.7000rpm = 733 rad/s:\n.params RA = 1.9             ;terminal resistance/ Ohms\n.params LA = 65u          ;terminal inductance/ Henries\n.params Ktorque = 13.4m  ;torque Nm/A\n.params Kemf = 13.37m    ;back EMF V/(rad/s) (should be=Ktorque !)\n.params Jm = 5.7E-7     ;motor inertia Nm/(rad/s^2) = kg*m^2\n.params BM = 1E-12    ;motor coulomb friction Nm/(rad/s) -not known!-\n.params Fdrm = 1m       ;detent torque Nm -not known!- (Losbrechmoment)\n.params Fdm = 1m        ;dry friction for velocity<>0  Nm
TEXT -104 -128 Left 0 !;Load Parameters:\n.params Bload = 5E-5    ;external mech. load: coulomb friction  Nm/(rad/s)\n.params Jload = 4E-5  ;load inertia Nm/(rad/s^2)\n.params Frel = 2m       ;Losbrechmoment, release torque Nm\n.params Ffr = 1m         ;dry friction for velocity<>0  Nm\n.params epsv0 = 1E-6  ;velocities below this are considered = 0\n.params epsv1 = 1E-5  ;at this velocity, constant friction Ffr is set
TEXT 216 -432 Left 0 !.options reltol = 1E-5 ;needed for small epsv1,epsv0
TEXT 688 336 Left 0 ;viscuous friction\nInertia
TEXT 824 424 Left 0 !;Gear:\n.subckt DC_xfrmr 1 2 3 4 params: ratio=1\nG1 0 N1 1 2 {sqrt(ratio)}\nG2 0 N1 4 3 {1/sqrt(ratio)}\nG3 1 2 N1 0 {sqrt(ratio)}\nG4 4 3 N1 0 {1/sqrt(ratio)}\nRx1 N1 0 1Meg\n.ends
TEXT 800 8 Left 0 !.params Spring1 = 10m ;spring-constant Nm/rad\n.params Jload2 = 10E-5 ;inertia Nm/(rad/s^2)
TEXT 1112 288 Left 0 ;Dry Friction
TEXT 824 -336 Left 0 ;*Electro-Mechanical Equivalents used:\nSpeed, linear (voltage) 1V = 1m/sec\nSpeed, rotational (voltage) 1V = 1rad/sec\nForce (current) 1A = 1N\ntorque (current) 1A = 1Nm\ninertia, rotational(capacitor) 1F = Nm/(rad/sec^2)\nmass (capacitor) 1F = 1kg\nviscuous friction, linear (resistor) 1/1Ohm = 1N/(m/sec)\nviscuous friction, rotational (resistor) 1/1Ohm = 1Nm/(rad/sec)\nspring, rotational (inductor) 1/1H = 1Nm/rad\nspring, linear (inductor) 1/1H = 1N/m
LINE Normal 656 256 688 336
LINE Normal 544 256 688 368
LINE Normal 1184 272 1232 240
