Version 4
SHEET 1 2532 1316
WIRE -1616 -2480 -1696 -2480
WIRE -1520 -2336 -1632 -2336
WIRE -1632 -2320 -1632 -2336
WIRE -1632 -2224 -1632 -2240
WIRE -912 -2160 -944 -2160
WIRE -480 -2160 -912 -2160
WIRE -304 -2160 -352 -2160
WIRE -1600 -2128 -1696 -2128
WIRE -944 -2128 -944 -2160
WIRE -1600 -2080 -1600 -2128
WIRE -944 -2032 -944 -2048
WIRE -1600 -1984 -1600 -2000
WIRE -1600 -1984 -1696 -1984
WIRE -1600 -1936 -1600 -1984
WIRE -1424 -1936 -1600 -1936
WIRE -1264 -1936 -1424 -1936
WIRE -1424 -1824 -1424 -1936
WIRE -1264 -1616 -1264 -1936
WIRE -1424 -1520 -1424 -1744
WIRE -1424 -1520 -1600 -1520
WIRE -1376 -1520 -1424 -1520
WIRE -1264 -1520 -1264 -1536
WIRE -1264 -1520 -1376 -1520
WIRE -1600 -1488 -1600 -1520
WIRE -1600 -1376 -1600 -1408
WIRE -1600 -1376 -1696 -1376
WIRE -640 -1168 -1008 -1168
WIRE -576 -1168 -640 -1168
WIRE -416 -1168 -416 -2112
WIRE -416 -1168 -448 -1168
WIRE -320 -1168 -416 -1168
WIRE -1008 -1120 -1008 -1168
WIRE -1568 -1072 -1632 -1072
WIRE -1504 -1072 -1568 -1072
WIRE -1632 -1024 -1632 -1072
WIRE -1008 -1024 -1008 -1040
WIRE -1632 -928 -1632 -944
FLAG -1696 -2128 a
IOPIN -1696 -2128 In
FLAG -1696 -1376 c
IOPIN -1696 -1376 Out
FLAG -320 -1168 dc
IOPIN -320 -1168 In
FLAG -1696 -2480 vc
IOPIN -1696 -2480 In
FLAG -640 -1168 dcx
FLAG -912 -2160 d2x
FLAG -304 -2160 d2
IOPIN -304 -2160 Out
FLAG -1376 -1520 cx
FLAG -1696 -1984 p
IOPIN -1696 -1984 In
FLAG -944 -2032 0
FLAG -1632 -928 0
FLAG -1632 -2224 0
FLAG -1520 -2336 DCxACX
IOPIN -1520 -2336 Out
FLAG -1568 -1072 AP-CXP
FLAG -1008 -1024 0
SYMBOL voltage -1600 -1504 R0
WINDOW 123 0 0 Left 0
WINDOW 39 24 44 Left 0
SYMATTR InstName VM
SYMATTR Value 0
SYMBOL bi -1424 -1824 R0
SYMATTR InstName Gipc
SYMATTR Value I=V(vc)/{Ri}
SYMBOL bi -1264 -1536 M180
WINDOW 0 24 88 Left 0
WINDOW 3 -206 -55 Left 0
SYMATTR InstName Gimju
SYMATTR Value I={Se}*V(dc)/({Ri}*{Fsw})+(v(cx,p)/{L})*V(d2)*{1/Fsw}*(1-(V(dc)+V(d2))/2)
SYMBOL bi -1600 -2080 R0
SYMATTR InstName Giap
SYMATTR Value I=(V(dc)/(V(dc)+V(d2)))*I(VM)
SYMBOL bv -944 -2144 R0
SYMATTR InstName Ed2
SYMATTR Value V=(2*{L}*{Fsw}*I(VM)/V(DCxACX))-V(dc)
SYMBOL bv -1632 -1040 R0
SYMATTR InstName Edc
SYMATTR Value V=if((V(a,p)-V(cx,p))>{divlim2}, V(a,p)-V(cx,p), if((V(a,p)-V(cx,p))<-{divlim2}, V(a,p)-V(cx,p), if((V(a,p)-V(cx,p))<0, -{divlim2}, {divlim2})))
SYMBOL bv -1632 -2336 R0
SYMATTR InstName Ed1
SYMATTR Value V=if(V(dc)*V(a,cx)>{divlim1}, V(dc)*V(a,cx), if(V(dc)*V(a,cx)<-{divlim1}, V(dc)*V(a,cx), if(V(dc)*V(a,cx)<0, -{divlim1}, {divlim1})))
SYMBOL limit1 -448 -1184 R0
WINDOW 39 -169 86 Left 0
SYMATTR SpiceLine clampL1={clampL} clampH1={clampH}
SYMATTR InstName X4
SYMBOL limit2 -352 -2176 R0
WINDOW 39 -56 90 Left 0
SYMATTR SpiceLine clampL2={clampL}
SYMATTR InstName X5
SYMBOL bv -1008 -1136 R0
SYMATTR InstName Edc1
SYMATTR Value V=V(d2)*V(cx,p)/V(AP-CXP)
TEXT -1088 -2624 Left 0 ;BUCK-CCM-DCM-CM
TEXT -1072 -2392 Left 0 ;Buck-PWMCM model:\nA=Active node, the switch terminal not connected to the diode\nP=Pasive node, the diode terminal not connected to the switch\nC=Common node, the junction between the diode and the power switch terminal\nCheck the right diode polarity in associated symbol
TEXT -1160 -2600 Left 0 !.param clampH=999m clampL=1m
TEXT -1160 -1720 Left 0 ;Duty pin (dc) is externally accesible for reference only\n(vc) voltage control pin is the one input controlling duty cycle
TEXT -1440 -1392 Left 0 ;Ri = (Verr max abs)/(Ic max abs) = Verr/Ic (max)\nVerr = maximum internal amplitude of  ramp refference\nIc max abs = absolute maximum switch current\nRi = hypothetical resistor used as current transductor\nHere Ri = 1 in order to have the real current coefficient = 1\nRi voltage dropp is the equivalent voltage of c current (page 154)
TEXT -1696 -2768 Left 0 ;Convergence problem isolated down to varicap model as a substitute for inductor current memory (page 158, starting from page 146)\nAfter fixing varicap, convergence errors isolated down to voltage oscillations crossing zero and used to divide some other expressions\nDivide by zero in expressions fixed with aditional limits on the affected expressions (see internal schematic of BUCK-CCM-DCM-CM)M\nFollowing Christhophe's advise, the whole capacitor was removed for average model used in transient simulations\nFor AC response, use BUCK-CCM-DCM-CM-AC mode; for transient response, use BUCK-CCM-DCM-CM (without resonant capacitor)
TEXT -616 -1064 Left 0 ;(clampL1={clampL} clampH1={clampH})
TEXT -408 -2056 Left 0 ;(clampL2={clampL})
TEXT -1192 -2552 Left 0 ;(.param L=47u Fsw=200k Ri=1 Se=100m)
TEXT -1344 -2512 Left 0 ;Sometimes the model will show fast oscillations: why?\nTo avoid (small) fast oscillations if input voltage colud not be increased do\nnot use max Timestep, use spice integration Gear and solver Alternarnate
TEXT -1168 -2576 Left 0 ;(.param clampH=999m clampL=1m)
TEXT -1576 -984 Left 0 !.param divlim2=300u
TEXT -1584 -2272 Left 0 !.param divlim1=2m
RECTANGLE Normal -160 -816 -1696 -2640
