Version 4
SHEET 1 2532 1316
WIRE -1616 -2560 -1696 -2560
WIRE -1488 -2432 -1600 -2432
WIRE -1600 -2416 -1600 -2432
WIRE -1600 -2320 -1600 -2336
WIRE -1600 -2240 -1696 -2240
WIRE -912 -2240 -944 -2240
WIRE -480 -2240 -912 -2240
WIRE -304 -2240 -352 -2240
WIRE -944 -2208 -944 -2240
WIRE -1600 -2192 -1600 -2240
WIRE -944 -2112 -944 -2128
WIRE -1600 -2096 -1600 -2112
WIRE -1600 -2096 -1696 -2096
WIRE -1600 -2048 -1600 -2096
WIRE -944 -2048 -1600 -2048
WIRE -768 -2048 -944 -2048
WIRE -608 -2048 -768 -2048
WIRE -1600 -2000 -1600 -2048
WIRE -944 -2000 -944 -2048
WIRE -1440 -1984 -1552 -1984
WIRE -1312 -1984 -1440 -1984
WIRE -1120 -1984 -1312 -1984
WIRE -992 -1984 -1120 -1984
WIRE -1504 -1920 -1552 -1920
WIRE -1312 -1920 -1504 -1920
WIRE -1056 -1920 -1312 -1920
WIRE -992 -1920 -1056 -1920
WIRE -1312 -1888 -1312 -1920
WIRE -1504 -1872 -1504 -1920
WIRE -1440 -1872 -1440 -1984
WIRE -1120 -1872 -1120 -1984
WIRE -1056 -1872 -1056 -1920
WIRE -1600 -1824 -1600 -1904
WIRE -1520 -1824 -1600 -1824
WIRE -1360 -1824 -1424 -1824
WIRE -1136 -1824 -1184 -1824
WIRE -944 -1824 -944 -1904
WIRE -944 -1824 -1040 -1824
WIRE -768 -1824 -768 -2048
WIRE -1600 -1648 -1600 -1824
WIRE -1536 -1648 -1600 -1648
WIRE -1360 -1648 -1184 -1824
WIRE -1360 -1648 -1408 -1648
WIRE -1184 -1648 -1360 -1824
WIRE -1136 -1648 -1184 -1648
WIRE -944 -1648 -944 -1824
WIRE -944 -1648 -1008 -1648
WIRE -608 -1616 -608 -2048
WIRE -1600 -1600 -1600 -1648
WIRE -944 -1600 -944 -1648
WIRE -1600 -1520 -1600 -1536
WIRE -944 -1520 -944 -1536
WIRE -944 -1520 -1600 -1520
WIRE -768 -1520 -768 -1744
WIRE -768 -1520 -944 -1520
WIRE -720 -1520 -768 -1520
WIRE -608 -1520 -608 -1536
WIRE -608 -1520 -720 -1520
WIRE -1600 -1488 -1600 -1520
WIRE -1600 -1376 -1600 -1408
WIRE -1600 -1376 -1696 -1376
WIRE -1632 -1296 -1664 -1296
WIRE -1600 -1296 -1632 -1296
WIRE -1600 -1264 -1600 -1296
WIRE -1600 -1152 -1600 -1184
WIRE -704 -1152 -976 -1152
WIRE -576 -1152 -704 -1152
WIRE -416 -1152 -416 -2192
WIRE -416 -1152 -448 -1152
WIRE -320 -1152 -416 -1152
WIRE -976 -1104 -976 -1152
WIRE -1584 -1008 -1648 -1008
WIRE -1520 -1008 -1584 -1008
WIRE -976 -1008 -976 -1024
WIRE -1648 -960 -1648 -1008
WIRE -1648 -864 -1648 -880
FLAG -1696 -2240 a
IOPIN -1696 -2240 In
FLAG -1696 -1376 c
IOPIN -1696 -1376 Out
FLAG -320 -1152 dc
IOPIN -320 -1152 In
FLAG -1696 -2560 vc
IOPIN -1696 -2560 In
FLAG -912 -2240 d2x
FLAG -304 -2240 d2
IOPIN -304 -2240 Out
FLAG -720 -1520 cx
FLAG -1632 -1296 mode
FLAG -1600 -1152 0
FLAG -1696 -2096 p
IOPIN -1696 -2096 In
FLAG -1312 -1984 mode
FLAG -1312 -1888 0
FLAG -944 -2112 0
FLAG -1600 -2320 0
FLAG -1488 -2432 DCxACX
IOPIN -1488 -2432 Out
FLAG -1648 -864 0
FLAG -704 -1152 dcx
FLAG -976 -1008 0
FLAG -1584 -1008 AP-CXP
SYMBOL voltage -1600 -1504 R0
WINDOW 123 0 0 Left 0
WINDOW 39 24 44 Left 0
SYMATTR InstName VM
SYMATTR Value 0
SYMBOL bv -1600 -1280 R0
SYMATTR InstName Emode
SYMATTR Value V=if(2*{L}*{Fsw}*I(VM)/(V(dc)*V(a,cx))<1, -1, 1)
SYMBOL bi -768 -1824 R0
SYMATTR InstName Gipc
SYMATTR Value I=V(vc)/{Ri}
SYMBOL bi -608 -1536 M180
WINDOW 0 24 88 Left 0
WINDOW 3 -628 -44 Left 0
SYMATTR InstName Gimju
SYMATTR Value I={Se}*V(dc)/({Ri}*{Fsw})+(v(cx,p)/{L})*V(d2)*{1/Fsw}*(1-(V(dc)+V(d2))/2)
SYMBOL bi -1600 -2192 R0
SYMATTR InstName Giap
SYMATTR Value I=(V(dc)/(V(dc)+V(d2)))*I(VM)
SYMBOL cap -1616 -1600 R0
SYMATTR InstName C2
SYMATTR Value {4/({L}*(6.28318*{Fsw})**2)}
SYMBOL cap -960 -1600 R0
SYMATTR InstName C3
SYMATTR Value 1pF
SYMBOL Gain -1472 -1648 R0
WINDOW 39 0 0 Left 0
SYMATTR SpiceLine k=1
SYMATTR InstName X1
SYMBOL Gain -1072 -1648 M0
WINDOW 39 0 0 Left 0
SYMATTR SpiceLine k=1
SYMATTR InstName X2
SYMBOL SWITCH -944 -1952 M180
WINDOW 0 -35 76 Left 0
WINDOW 3 -112 52 Left 0
SYMATTR InstName S1
SYMATTR Value MySwitch
SYMBOL SWITCH -1600 -1952 M0
WINDOW 0 -17 -76 Right 0
WINDOW 3 -16 -50 Right 0
SYMATTR InstName S2
SYMATTR Value MySwitch
SYMBOL SWITCH -1472 -1824 M90
WINDOW 0 52 -13 VRight 0
WINDOW 3 77 -45 VRight 0
SYMATTR InstName S3
SYMATTR Value MySwitch
SYMBOL SWITCH -1088 -1824 M90
WINDOW 0 52 -13 VRight 0
WINDOW 3 77 -45 VRight 0
SYMATTR InstName S4
SYMATTR Value MySwitch
SYMBOL bv -944 -2224 R0
SYMATTR InstName Ed2
SYMATTR Value V=(2*{L}*{Fsw}*I(VM)/V(DCxACX))-V(dc)
SYMBOL bv -1600 -2432 R0
SYMATTR InstName Ed1
SYMATTR Value V=if(V(dc)*V(a,cx)>{divlim1}, V(dc)*V(a,cx), if(V(dc)*V(a,cx)<-{divlim1}, V(dc)*V(a,cx), if(V(dc)*V(a,cx)<0, -{divlim1}, {divlim1})))
SYMBOL limit1 -448 -1168 R0
WINDOW 39 -169 86 Left 0
SYMATTR SpiceLine clampL1={clampL} clampH1={clampH}
SYMATTR InstName X4
SYMBOL limit2 -352 -2256 R0
WINDOW 39 -56 90 Left 0
SYMATTR SpiceLine clampL2={clampL}
SYMATTR InstName X5
SYMBOL bv -1648 -976 R0
SYMATTR InstName Ed4
SYMATTR Value V=if((V(a,p)-V(cx,p))>{divlim2}, V(a,p)-V(cx,p), if((V(a,p)-V(cx,p))<-{divlim2}, V(a,p)-V(cx,p), if((V(a,p)-V(cx,p))<0, -{divlim2}, {divlim2})))
SYMBOL bv -976 -1120 R0
SYMATTR InstName Edc1
SYMATTR Value V=V(d2)*V(cx,p)/V(AP-CXP)
TEXT -1088 -2704 Left 0 ;BUCK-CCM-DCM-CM-AC
TEXT -1136 -2488 Left 0 ;Buck-PWMCM model:\nA=Active node, the switch terminal not connected to the diode\nP=Pasive node, the diode terminal not connected to the switch\nC=Common node, the junction between the diode and the power switch terminal\nCheck the right diode polarity in associated symbol
TEXT -1160 -2680 Left 0 !.param clampH=999m clampL=1m
TEXT -896 -952 Left 0 ;Duty pin (dc) is externally accesible for reference only\n(vc) voltage control pin is the one input controlling duty cycle
TEXT -1304 -1400 Left 0 ;Ri = (Verr max abs)/(Ic max abs) = Verr/Ic (max)\nVerr = maximum internal amplitude of  ramp refference\nIc max abs = absolute maximum switch current\nRi = hypothetical resistor used as current transductor\nHere Ri = 1 in order to have the real current coefficient = 1\nRi voltage dropp is the equivalent voltage of c current (page 154)
TEXT -1576 -2072 Left 0 !.model MySwitch SW(Ron=1m Roff=10meg Vt=0V Vh=-0.5V)
TEXT -1696 -2800 Left 0 ;Convergence problem isolated down to varicap model as a substitute for inductor current memory (page 158, starting from page 146)\nAfter fixing varicap, convergence errors isolated down to voltage oscillations crossing zero and used to divide some other expressions\nDivide by zero in expressions fixed with aditional limits on the affected expressions (see internal schematic of BUCK-CCM-DCM-CM)
TEXT -616 -1056 Left 0 ;(clampL1={clampL} clampH1={clampH})
TEXT -408 -2136 Left 0 ;(clampL2={clampL})
TEXT -1192 -2632 Left 0 ;(.param L=47u Fsw=200k Ri=1 Se=100m)
TEXT -1344 -2592 Left 0 ;Sometimes the model will show fast oscillations: why?\nTo avoid (small) fast oscillations if input voltage colud not be increased do\nnot use max Timestep, use spice integration Gear and solver Alternarnate
TEXT -1168 -2656 Left 0 ;(.param clampH=999m clampL=1m)
TEXT -1488 -920 Left 0 !.param divlim2=300u
TEXT -1536 -2368 Left 0 !.param divlim1=2m
RECTANGLE Normal -160 -816 -1696 -2720
