Version 4
SHEET 1 1492 1560
WIRE -352 368 -352 336
WIRE -352 256 -352 240
WIRE -352 240 -240 240
WIRE -16 240 256 240
WIRE 256 336 256 368
WIRE -16 240 -16 272
WIRE -16 352 -16 368
WIRE -160 240 -16 240
WIRE 256 240 352 240
WIRE 256 240 256 272
FLAG -352 368 0
FLAG 256 368 0
FLAG -16 368 0
FLAG 352 240 out
IOPIN 352 240 Out
SYMBOL voltage -352 240 R0
SYMATTR InstName V1
SYMATTR Value AC 1
SYMBOL I:\\LTC\\SwCADIII\\Jims\ circuits\\Monte\ carlo\ toolbox\\r_mc_2 -144 224 R90
WINDOW 0 6 56 VBottom 0
WINDOW 39 78 43 VTop 0
SYMATTR InstName R1
SYMATTR SpiceLine R=10k Tol=1 Seed=1
SYMBOL I:\\LTC\\SwCADIII\\Jims\ circuits\\Monte\ carlo\ toolbox\\l_mc_2 -32 256 R0
SYMATTR InstName L1
SYMATTR SpiceLine L=100u Tol=10 seed=2
SYMBOL I:\\LTC\\SwCADIII\\Jims\ circuits\\Monte\ carlo\ toolbox\\c_mc_2 240 272 R0
SYMATTR InstName C1
SYMATTR SpiceLine C=1.8p Tol=1 seed=3
SYMBOL Z:\\Jims\ circuits\\Monte\ carlo\ toolbox\\FINAL\\MonteCarlo_Help -384 1088 R0
SYMATTR InstName X1
TEXT -112 176 Left 0 !.ac oct 100 1meg 100Meg
TEXT -360 32 Left 0 ;Effecting a Monte Carlo calculation in LTspice\nThese LCR symbols allow tolerance distribution to be selected for all instaces of montecarlo componants\nby use of {M} parameter switch
TEXT -360 176 Left 0 !.step param run 1 8 1
TEXT -360 136 Left 0 !.include RMC.lib
TEXT -376 472 Left 0 !.param M=3
TEXT -168 136 Left 0 !.include LMC.lib
TEXT 32 136 Left 0 !.include CMC.lib
