Version 4
SHEET 1 1220 1688
WIRE 208 560 208 592
WIRE 208 480 208 432
WIRE 208 432 272 432
WIRE 640 560 640 592
WIRE 640 480 640 432
WIRE 640 432 704 432
FLAG 208 592 0
FLAG 272 432 out_M_switch
IOPIN 272 432 Out
FLAG 640 592 0
FLAG 704 432 out_dropdown
IOPIN 704 432 Out
SYMBOL C:\\Program\ Files\\LTC\\SwCADIII\\Jims\ circuits\\Monte\ carlo\ toolbox\\V_mc_2 192 464 R0
SYMATTR InstName V1
SYMBOL C:\\Program\ Files\\LTC\\SwCADIII\\Jims\ circuits\\Monte\ carlo\ toolbox\\V_mc_1 624 464 R0
SYMATTR InstName V2
SYMATTR SpiceModel V_uniform_3
SYMATTR SpiceLine V=1 Tol=1 Seed=2
SYMBOL Z:\\Jims\ circuits\\Monte\ carlo\ toolbox\\FINAL\\montecarlo_help -48 1216 R0
SYMATTR InstName X1
TEXT -72 296 Left 0 !.step param run 1 100 1
TEXT -72 322 Left 0 !.op
TEXT -72 264 Left 0 !.include VMC.lib
TEXT -72 352 Left 0 !.param M=5
