Version 4
SHEET 1 1220 1688
WIRE 208 560 208 592
WIRE 208 480 208 432
WIRE 208 432 544 432
WIRE 544 496 544 432
WIRE 544 432 624 432
WIRE 544 560 544 592
FLAG 208 592 0
FLAG 624 432 out_M_switch
IOPIN 624 432 Out
FLAG 544 592 0
SYMBOL C:\\Program\ Files\\LTC\\SwCADIII\\Jims\ circuits\\Monte\ carlo\ toolbox\\V_mc_2 192 464 R0
SYMATTR InstName V1
SYMATTR SpiceLine2 AC=1 Rser=run Cpar=1p
SYMBOL Z:\\Jims\ circuits\\Monte\ carlo\ toolbox\\FINAL\\montecarlo_help -48 1216 R0
SYMATTR InstName X1
SYMBOL MonteCarlo\\c_mc_2 528 496 R0
SYMATTR InstName U1
SYMATTR SpiceLine C=1u Tol=1 seed=2
TEXT -72 296 Left 0 !.step param run 1 100 1
TEXT -72 322 Left 0 !;op
TEXT -72 264 Left 0 !.include VMC.lib
TEXT -72 352 Left 0 !.param M=5
TEXT -72 392 Left 0 !.ac oct 10 1 10000000
TEXT 136 264 Left 0 !.include CMC.lib
