Version 4
SHEET 1 1024 756
SYMBOL Z:\\Jims\ circuits\\Monte\ carlo\ toolbox\\c_mc_1 -272 -384 R0
SYMATTR InstName U1
SYMBOL Z:\\Jims\ circuits\\Monte\ carlo\ toolbox\\c_mc_2 -272 -192 R0
SYMATTR InstName U2
SYMBOL Z:\\Jims\ circuits\\Monte\ carlo\ toolbox\\l_mc_1 0 -400 R0
SYMATTR InstName U3
SYMBOL Z:\\Jims\ circuits\\Monte\ carlo\ toolbox\\l_mc_2 0 -208 R0
SYMATTR InstName U4
SYMBOL Z:\\Jims\ circuits\\Monte\ carlo\ toolbox\\r_mc_1 -592 -416 R0
SYMATTR InstName U5
SYMBOL Z:\\Jims\ circuits\\Monte\ carlo\ toolbox\\r_mc_2 -592 -208 R0
SYMATTR InstName U6
SYMBOL Z:\\Jims\ circuits\\Monte\ carlo\ toolbox\\V_mc_1 384 -400 R0
SYMATTR InstName U7
SYMBOL Z:\\Jims\ circuits\\Monte\ carlo\ toolbox\\V_mc_2 384 -192 R0
SYMATTR InstName U8
SYMBOL Z:\\Jims\ circuits\\Monte\ carlo\ toolbox\\xdgnmos_mc -592 -16 R0
SYMATTR InstName U9
SYMBOL Z:\\Jims\ circuits\\Monte\ carlo\ toolbox\\xdiode_mc -608 336 R0
SYMATTR InstName U10
SYMBOL Z:\\Jims\ circuits\\Monte\ carlo\ toolbox\\xnjf_mc -288 336 R0
SYMATTR InstName U11
SYMBOL Z:\\Jims\ circuits\\Monte\ carlo\ toolbox\\xnpndarlington_mc -368 480 R0
SYMATTR InstName U13
SYMBOL Z:\\Jims\ circuits\\Monte\ carlo\ toolbox\\xnpn_mc -304 160 R0
SYMATTR InstName U14
SYMBOL Z:\\Jims\ circuits\\Monte\ carlo\ toolbox\\xopamp_mc -560 144 R0
SYMATTR InstName U15
SYMBOL Z:\\Jims\ circuits\\Monte\ carlo\ toolbox\\xpjf_mc -32 336 R0
SYMATTR InstName U16
SYMBOL Z:\\Jims\ circuits\\Monte\ carlo\ toolbox\\xpmos_mc -32 -16 R0
SYMATTR InstName U17
SYMBOL Z:\\Jims\ circuits\\Monte\ carlo\ toolbox\\xpnpdarlington_mc -128 480 R0
SYMATTR InstName U18
SYMBOL Z:\\Jims\ circuits\\Monte\ carlo\ toolbox\\xpnp_mc -48 160 R0
SYMATTR InstName U19
SYMBOL Z:\\Jims\ circuits\\Monte\ carlo\ toolbox\\xreg_mc 416 32 R0
SYMATTR InstName U20
SYMBOL Z:\\Jims\ circuits\\Monte\ carlo\ toolbox\\xzener_mc -608 496 R0
SYMATTR InstName U21
SYMBOL Z:\\Jims\ circuits\\Monte\ carlo\ toolbox\\xnmos_mc -288 -16 R0
SYMATTR InstName U12
TEXT -440 -432 Left 0 ;Drop Down symbols for passive libraries CMC.lib, LMC.lib,RMC.lib,VMC.lib
TEXT -448 -248 Left 0 ;{M} parameter switch symbols for passive libraries CMC.lib, LMC.lib,RMC.lib,VMC.lib
TEXT -448 -72 Left 0 ;Montecarlo subcircuit symbols for applying minmax/gaussian tolerance to subcircuits
