Version 4
SHEET 1 880 680
WIRE -96 0 -192 0
WIRE -16 0 -96 0
WIRE -16 32 -16 0
WIRE -192 112 -192 0
WIRE -16 144 -16 112
WIRE 80 144 -16 144
WIRE -16 176 -16 144
WIRE 32 208 16 208
WIRE -192 272 -192 192
WIRE -16 272 -16 240
WIRE -16 272 -192 272
WIRE -192 304 -192 272
FLAG -192 304 0
FLAG 80 144 REF
IOPIN 80 144 Out
FLAG -96 0 VCC
SYMBOL res -32 16 R0
SYMATTR InstName R1
SYMATTR Value 3.3k
SYMBOL voltage -192 96 R0
SYMATTR InstName V1
SYMATTR Value 5
SYMBOL Robertugo\\xref3 0 176 M0
WINDOW 38 90 36 Center 0
SYMATTR InstName U1
SYMATTR SpiceModel LT1009XY
TEXT -192 -88 Left 0 !.dc temp -55 125 1
TEXT -208 -128 Left 0 ;This is a selfmade model.
