Version 4
SHEET 1 880 680
WIRE 224 -48 64 -48
WIRE 448 -48 224 -48
WIRE 64 -16 64 -48
WIRE 448 -16 448 -48
WIRE 224 96 224 -48
WIRE 64 112 64 64
WIRE 176 112 64 112
WIRE 224 256 224 192
WIRE 448 256 448 64
FLAG 448 256 0
FLAG 224 256 0
SYMBOL voltage 448 -32 R0
SYMATTR InstName V2
SYMATTR Value 5
SYMBOL voltage 64 -32 R0
SYMATTR InstName V1
SYMATTR Value 1
SYMBOL sym_Mosfets\\irlms6702 176 192 M180
SYMATTR InstName Q1
TEXT 64 -136 Left 0 !.dc V2 0 3 .1 V1 0 3 .5
TEXT 64 -200 Left 0 ;Plot Ix(Q1:S)
