Version 4
SHEET 1 880 780
WIRE -576 128 -576 96
WIRE -576 240 -576 208
WIRE -576 256 -576 240
WIRE -576 304 -576 256
WIRE -576 448 -576 384
WIRE -576 496 -576 448
WIRE -576 624 -576 576
WIRE -560 240 -576 240
WIRE -544 448 -576 448
WIRE -512 96 -576 96
WIRE -512 144 -512 96
WIRE -512 304 -512 144
WIRE -512 416 -512 368
WIRE -496 144 -512 144
WIRE -496 224 -496 176
WIRE -496 368 -512 368
WIRE -480 176 -496 176
WIRE -464 224 -496 224
WIRE -464 256 -576 256
WIRE -464 416 -512 416
WIRE -464 448 -544 448
WIRE -432 208 -432 192
WIRE -432 368 -432 272
WIRE -432 400 -432 368
WIRE -432 608 -432 464
WIRE -352 368 -432 368
WIRE -352 480 -352 368
WIRE -304 304 -512 304
WIRE -304 320 -304 304
WIRE -304 464 -304 400
WIRE -304 560 -336 560
WIRE -304 560 -304 464
WIRE -272 464 -304 464
WIRE -256 432 -400 432
WIRE -256 432 -256 400
WIRE -240 240 -400 240
WIRE -224 400 -256 400
WIRE -176 240 -240 240
WIRE -176 352 -176 240
WIRE -176 560 -304 560
WIRE -160 480 -352 480
WIRE -160 544 -160 480
WIRE -160 608 -432 608
WIRE -160 608 -160 576
WIRE -128 352 -176 352
WIRE -128 400 -224 400
WIRE -80 320 -80 272
WIRE -80 608 -160 608
WIRE -80 608 -80 432
WIRE 0 400 -16 400
WIRE 32 560 -112 560
WIRE 32 560 32 320
WIRE 64 192 -432 192
WIRE 64 608 -80 608
WIRE 64 608 64 192
WIRE 96 352 -32 352
WIRE 96 528 96 352
WIRE 112 96 -512 96
WIRE 112 112 112 96
WIRE 112 208 112 192
WIRE 112 528 96 528
WIRE 112 560 32 560
WIRE 144 480 -160 480
WIRE 144 496 144 480
WIRE 144 608 64 608
WIRE 144 608 144 592
WIRE 160 96 112 96
WIRE 176 208 112 208
WIRE 176 208 176 144
WIRE 176 464 -208 464
WIRE 176 464 176 208
WIRE 224 208 224 144
WIRE 224 544 208 544
WIRE 224 544 224 208
WIRE 256 208 224 208
WIRE 256 320 32 320
WIRE 256 352 96 352
WIRE 288 96 240 96
WIRE 288 160 288 96
WIRE 288 272 -80 272
WIRE 288 288 288 272
WIRE 288 592 288 384
WIRE 288 608 144 608
WIRE 288 608 288 592
WIRE 304 160 288 160
WIRE 336 96 288 96
WIRE 336 512 336 496
WIRE 336 608 288 608
WIRE 336 608 336 592
WIRE 352 208 256 208
WIRE 352 208 352 144
WIRE 368 336 352 336
WIRE 368 368 368 336
WIRE 368 400 368 368
WIRE 400 208 400 144
WIRE 400 272 288 272
WIRE 400 480 144 480
WIRE 400 480 400 272
WIRE 400 512 400 480
WIRE 400 624 -576 624
WIRE 400 624 400 592
WIRE 432 96 416 96
WIRE 432 208 400 208
WIRE 432 208 432 96
WIRE 432 320 432 208
WIRE 432 464 176 464
WIRE 432 464 432 320
WIRE 448 320 432 320
WIRE 464 464 432 464
WIRE 464 464 464 368
WIRE 464 496 336 496
WIRE 464 496 464 464
WIRE 464 624 400 624
WIRE 464 624 464 496
WIRE 496 624 464 624
WIRE 512 400 368 400
WIRE 512 400 512 368
WIRE 528 192 512 192
WIRE 528 320 528 192
FLAG -544 448 N1
FLAG -224 400 N3
FLAG -496 368 2
IOPIN -496 368 In
FLAG -560 240 5
IOPIN -560 240 In
FLAG 512 192 7
IOPIN 512 192 Out
FLAG 368 368 N7
FLAG -240 240 N2
FLAG 96 352 N5
FLAG -480 176 6
IOPIN -480 176 In
FLAG -496 144 8
FLAG 304 160 3
IOPIN 304 160 Out
FLAG 256 208 N6
FLAG 496 624 1
FLAG 32 560 N4
FLAG -336 560 4
IOPIN -336 560 In
FLAG 288 592 V-
FLAG 288 272 V+
SYMBOL res -592 480 R0
WINDOW 0 31 47 Left 0
WINDOW 3 33 80 Left 0
SYMATTR InstName R1
SYMATTR Value 5k
SYMBOL res -592 288 R0
WINDOW 0 37 43 Left 0
WINDOW 3 37 74 Left 0
SYMATTR InstName R2
SYMATTR Value 5k
SYMBOL res -592 112 R0
SYMATTR InstName R3
SYMATTR Value 5k
SYMBOL sw 432 320 R270
WINDOW 0 -17 41 VRight 0
WINDOW 3 47 39 VRight 0
SYMATTR InstName S1
SYMATTR Value DS
SYMBOL sw 144 96 R270
WINDOW 0 -14 40 VRight 0
WINDOW 3 14 92 VRight 0
SYMATTR InstName S2
SYMATTR Value OS
SYMBOL sw 320 96 R270
WINDOW 0 -14 42 VRight 0
WINDOW 3 15 92 VRight 0
SYMATTR InstName S3
SYMATTR Value OS
SYMBOL res 128 208 R180
WINDOW 0 -29 67 Left 0
WINDOW 3 -28 28 Left 0
SYMATTR InstName R4
SYMATTR Value 4k
SYMBOL current -304 320 R0
WINDOW 123 0 0 Left 0
WINDOW 39 0 0 Left 0
WINDOW 3 -120 17 Left 0
WINDOW 0 -25 34 Left 0
SYMATTR Value .4m load
SYMATTR InstName I1
SYMBOL diode -272 448 M90
WINDOW 0 0 37 VBottom 0
WINDOW 3 34 33 VTop 0
SYMATTR InstName D1
SYMATTR Value DR
SYMBOL SrFf -80 304 R0
WINDOW 3 -26 119 Left 0
SYMATTR InstName X3
SYMBOL voltage 400 496 R0
WINDOW 0 -3 57 Left 0
WINDOW 3 -22 57 Left 0
SYMATTR InstName V1
SYMATTR Value 1
SYMBOL OrH 304 272 R0
WINDOW 3 18 37 Left 0
SYMATTR InstName X5
SYMBOL NorH 160 480 R0
WINDOW 3 2 24 Left 0
SYMATTR InstName X6
SYMBOL NotH -176 496 R0
WINDOW 0 -1 64 Left 0
WINDOW 3 28 41 Left 0
SYMATTR InstName X4
SYMBOL comp3 -432 304 M180
WINDOW 3 66 80 Center 0
WINDOW 0 -30 63 Left 0
SYMATTR InstName X1
SYMATTR Description Comparador
SYMBOL comp3 -432 368 R0
WINDOW 0 -30 63 Left 0
WINDOW 3 -46 135 Center 0
SYMATTR InstName X2
SYMATTR Description Comparador
SYMBOL voltage 336 496 R0
WINDOW 0 -3 57 Left 0
WINDOW 3 -22 57 Left 0
SYMATTR InstName V2
SYMATTR Value 1
TEXT -440 112 Left 0 !.model DS Vswitch(Ron=6 Roff=.75G Vt=.5 Vh=.4)\n.model OS Vswitch(Ron=6 Roff=1Meg Vt=0 Vh=.8)\n.model DR D(Ron=150K  Vfwd=1.6)
