Version 4
SHEET 1 2228 2260
TEXT 1408 2232 Left 0 ;SHEET:
TEXT 1232 2232 Left 0 ;SIZE:
TEXT 960 2072 Left 0 ;DESIGN TITLE:
TEXT 960 2024 Left 0 ;COMPANY:
TEXT 1520 2152 Left 0 ;REV:
TEXT 960 2152 Left 0 ;AUTHOR:
TEXT 1512 2232 Left 0 ;1 of 1
TEXT 1320 2232 Left 0 ;A4
TEXT 1144 2024 Left 0 ;<name>
TEXT 1536 2184 Left 0 ;1
TEXT 1232 2152 Left 0 ;DRAWING NUMBE
TEXT 1232 2184 Left 0 ;<number>
TEXT 960 2184 Left 0 ;<name>
TEXT 960 2232 Left 0 ;DATE:
TEXT 1144 2072 Left 0 ;<title1>
TEXT 1144 2104 Left 0 ;<title2>
TEXT 1072 2232 Left 0 ;<date>
RECTANGLE Normal 0 0 1600 2256
RECTANGLE Normal 1600 2256 1392 2208
RECTANGLE Normal 1392 2256 1216 2208
RECTANGLE Normal 1600 2128 944 2048
RECTANGLE Normal 1600 2048 944 2000
RECTANGLE Normal 1216 2256 944 2208
RECTANGLE Normal 1600 2208 1504 2128
RECTANGLE Normal 1216 2208 944 2128
RECTANGLE Normal 1504 2208 1216 2128
