Version 4
SHEET 1 1604 1604
TEXT 936 1576 Left 0 ;SHEET:
TEXT 760 1576 Left 0 ;SIZE:
TEXT 488 1416 Left 0 ;DESIGN TITLE:
TEXT 488 1368 Left 0 ;COMPANY:
TEXT 1048 1496 Left 0 ;REV:
TEXT 488 1496 Left 0 ;AUTHOR:
TEXT 1040 1576 Left 0 ;1 of 1
TEXT 848 1576 Left 0 ;A5
TEXT 672 1368 Left 0 ;<name>
TEXT 1064 1528 Left 0 ;1
TEXT 760 1496 Left 0 ;DRAWING NUMBER
TEXT 760 1528 Left 0 ;<number>
TEXT 488 1528 Left 0 ;<name>
TEXT 488 1576 Left 0 ;DATE:
TEXT 672 1416 Left 0 ;<title1>
TEXT 672 1448 Left 0 ;<title2>
TEXT 600 1576 Left 0 ;<date>
RECTANGLE Normal 0 0 1128 1600
RECTANGLE Normal 1128 1600 920 1552
RECTANGLE Normal 920 1600 744 1552
RECTANGLE Normal 1128 1472 472 1392
RECTANGLE Normal 1128 1392 472 1344
RECTANGLE Normal 744 1600 472 1552
RECTANGLE Normal 1128 1552 1032 1472
RECTANGLE Normal 744 1552 472 1472
RECTANGLE Normal 1032 1552 744 1472
