Version 4
SHEET 1 2260 1604
TEXT 2064 1576 Left 0 ;SHEET:
TEXT 1888 1576 Left 0 ;SIZE:
TEXT 1616 1416 Left 0 ;DESIGN TITLE:
TEXT 1616 1368 Left 0 ;COMPANY:
TEXT 2176 1496 Left 0 ;REV:
TEXT 1616 1496 Left 0 ;AUTHOR:
TEXT 2168 1576 Left 0 ;1 of 1
TEXT 1976 1576 Left 0 ;A4
TEXT 1800 1368 Left 0 ;<name>
TEXT 2192 1528 Left 0 ;1
TEXT 1888 1496 Left 0 ;DRAWING NUMBER
TEXT 1888 1528 Left 0 ;<number>
TEXT 1616 1528 Left 0 ;<name>
TEXT 1616 1576 Left 0 ;DATE:
TEXT 1800 1416 Left 0 ;<title1>
TEXT 1800 1448 Left 0 ;<title2>
TEXT 1728 1576 Left 0 ;<date>
RECTANGLE Normal 0 0 2256 1600
RECTANGLE Normal 2256 1600 2048 1552
RECTANGLE Normal 2048 1600 1872 1552
RECTANGLE Normal 2256 1472 1600 1392
RECTANGLE Normal 2256 1392 1600 1344
RECTANGLE Normal 1872 1600 1600 1552
RECTANGLE Normal 2256 1552 2160 1472
RECTANGLE Normal 1872 1552 1600 1472
RECTANGLE Normal 2160 1552 1872 1472
