Version 4
SHEET 1 912 680
WIRE -48 192 -48 176
WIRE -48 176 -32 176
WIRE 384 176 416 176
WIRE 528 176 544 176
WIRE 560 176 560 208
WIRE -96 208 -128 208
WIRE -128 208 -128 96
WIRE -128 96 560 96
WIRE 560 96 560 176
WIRE 560 272 560 304
WIRE 416 304 416 272
WIRE 416 208 416 176
WIRE 416 176 432 176
WIRE 128 304 128 272
WIRE 128 208 128 176
WIRE 128 176 144 176
WIRE -48 304 -48 272
WIRE -96 256 -112 256
WIRE 96 176 128 176
WIRE -32 176 16 176
WIRE 144 176 160 176
WIRE 240 176 256 176
WIRE 256 176 288 176
WIRE 432 176 448 176
WIRE 544 176 560 176
FLAG -112 256 0
FLAG -48 304 0
FLAG 128 304 0
FLAG 416 304 0
FLAG 560 304 0
FLAG -32 176 1
FLAG 144 176 2
FLAG 256 176 3
FLAG 432 176 4
FLAG 544 176 5
SYMBOL cap 112 208 R0
SYMATTR InstName C1
SYMATTR Value 1µ
SYMBOL cap 400 208 R0
SYMATTR InstName C2
SYMATTR Value 1µ
SYMBOL cap 544 208 R0
WINDOW 123 7 66 Right 0
SYMATTR Value2 IC=1
SYMATTR InstName C3
SYMATTR Value 1µ
SYMBOL res 112 160 R90
WINDOW 0 0 56 VBottom 0
WINDOW 3 32 56 VTop 0
SYMATTR InstName R1
SYMATTR Value 1k
SYMBOL res 256 160 R90
WINDOW 0 0 56 VBottom 0
WINDOW 3 32 56 VTop 0
SYMATTR InstName R2
SYMATTR Value 1k
SYMBOL res 544 160 R90
WINDOW 0 0 56 VBottom 0
WINDOW 3 32 56 VTop 0
SYMATTR InstName R3
SYMATTR Value 1k
SYMBOL e2 -48 176 R0
SYMATTR InstName E1
SYMATTR Value 30
SYMBOL LoopGainProbe 336 176 R0
SYMATTR InstName Xp
TEXT -184 376 Left 0 !.ac dec 101 1 1e6
TEXT -184 400 Left 0 ;.tran 0 50m 0 50u uic
TEXT -184 440 Left 0 !.param prb=0
TEXT -184 464 Left 0 !.step param prb list -1 1
TEXT -184 512 Left 0 ;Waveform math to use for calculating loop gain:
TEXT -184 536 Left 0 ;1/(1-1/(2*(I(V:p:i)@1*V(p:x)@2-V(p:x)@1*I(V:p:i)@2)+V(p:x)@1+I(V:p:i)@2))
TEXT 256 -96 Center 0 ;The Tian Technique Loop Gain Measurement Demo
TEXT -184 -48 Left 0 ;This circuit demonstrates the Tian technique for measuring loop gain.  The probe \nis polarity insensitive and may be inserted anywhere within the loop to be measured \nwithout incurring loading errors.  This demo circuit is unstable for E1 gain values \nof 29 or greater according to both the transient simulation and the ac loop gain \ntechnique.
