Version 4
SHEET 1 1076 680
WIRE 576 -224 544 -224
WIRE 672 -224 656 -224
WIRE 784 -224 752 -224
WIRE 256 -208 16 -208
WIRE 256 -160 256 -208
WIRE 336 -80 256 -80
WIRE 432 -80 336 -80
WIRE 496 -80 432 -80
WIRE 256 -48 256 -80
WIRE 336 -48 336 -80
WIRE 544 -32 544 -224
WIRE 592 -32 544 -32
WIRE 784 -16 784 -224
WIRE 784 -16 656 -16
WIRE 592 0 496 0
WIRE 256 48 256 32
WIRE 336 48 336 32
WIRE 336 48 256 48
WIRE 432 48 336 48
WIRE 496 48 496 0
WIRE 496 48 432 48
WIRE 624 48 624 16
WIRE 160 80 144 80
WIRE 256 80 256 48
WIRE 256 80 224 80
WIRE 16 128 16 -208
WIRE 144 128 144 80
WIRE 256 128 256 80
WIRE 544 160 544 -32
WIRE 784 160 784 -16
WIRE 16 256 16 208
WIRE 144 256 144 208
WIRE 144 256 16 256
WIRE 256 256 256 208
WIRE 256 256 144 256
WIRE 544 256 544 240
WIRE 544 256 256 256
WIRE 784 256 784 240
WIRE 784 256 544 256
WIRE 16 320 16 256
FLAG 16 320 0
FLAG 16 -208 Vbat
FLAG 784 -16 Vout
FLAG 624 -48 Vbat
FLAG 432 48 2V
FLAG 432 -80 7V
FLAG 624 48 0
SYMBOL voltage 16 112 R0
WINDOW 123 0 0 Left 0
WINDOW 39 0 0 Left 0
SYMATTR InstName V1
SYMATTR Value 9
SYMBOL res 240 -176 R0
SYMATTR InstName R1
SYMATTR Value 1000
SYMBOL res 240 -64 R0
SYMATTR InstName R2
SYMATTR Value 3300
SYMBOL res 320 -64 R0
SYMATTR InstName R3
SYMATTR Value 10000
SYMBOL res 240 112 R0
SYMATTR InstName R4
SYMATTR Value 1000
SYMBOL res 672 -240 R90
WINDOW 0 0 56 VBottom 0
WINDOW 3 32 56 VTop 0
SYMATTR InstName R5
SYMATTR Value 10k
SYMBOL res 768 -240 R90
WINDOW 0 0 56 VBottom 0
WINDOW 3 32 56 VTop 0
SYMATTR InstName R6
SYMATTR Value 10k
SYMBOL res 528 144 R0
SYMATTR InstName R7
SYMATTR Value 10k
SYMBOL voltage 144 112 R0
WINDOW 123 24 132 Left 0
WINDOW 39 0 0 Left 0
WINDOW 3 24 104 Invisible 0
SYMATTR Value2 AC 1
SYMATTR Value ""
SYMATTR InstName V2
SYMBOL cap 224 64 R90
WINDOW 0 0 32 VBottom 0
WINDOW 3 32 32 VTop 0
SYMATTR InstName C1
SYMATTR Value 100µF
SYMBOL res 800 256 R180
WINDOW 0 36 76 Left 0
WINDOW 3 36 40 Left 0
SYMATTR InstName R8
SYMATTR Value 1k
SYMBOL Robertugo\\OPAMP5 624 -80 R0
SYMATTR InstName U2
SYMATTR SpiceModel LM741/NS
TEXT 32 288 Left 0 !;op
TEXT 120 288 Left 0 !.ac dec 25 1 3megahertz
