Version 4
SHEET 1 1604 680
WIRE 1392 -352 112 -352
WIRE 336 -208 336 -240
WIRE 656 -208 656 -240
WIRE -160 -128 -160 -160
WIRE 336 -96 336 -128
WIRE 368 -96 336 -96
WIRE 464 -96 448 -96
WIRE 656 -96 656 -128
WIRE 688 -96 656 -96
WIRE 784 -96 768 -96
WIRE 16 -80 -96 -80
WIRE -48 -32 -48 -128
WIRE -96 -16 -96 -80
WIRE -80 -16 -96 -16
WIRE 16 0 16 -80
WIRE 16 0 -16 0
WIRE -160 16 -160 -48
WIRE -80 16 -160 16
WIRE 656 32 656 -96
WIRE 688 32 656 32
WIRE 336 48 336 -96
WIRE 368 48 336 48
WIRE 784 48 784 -96
WIRE 784 48 752 48
WIRE 832 48 784 48
WIRE 976 48 912 48
WIRE 1040 48 976 48
WIRE 1184 48 1120 48
WIRE 1232 48 1184 48
WIRE 1344 48 1312 48
WIRE -256 64 -256 16
WIRE -48 64 -48 32
WIRE 464 64 464 -96
WIRE 464 64 432 64
WIRE 512 64 464 64
WIRE 656 64 592 64
WIRE 688 64 656 64
WIRE 112 80 112 -352
WIRE 192 80 112 80
WIRE 336 80 272 80
WIRE 368 80 336 80
WIRE 720 112 720 80
WIRE 336 128 336 80
WIRE 400 128 400 96
WIRE 656 128 656 64
WIRE 976 128 976 48
WIRE -160 144 -160 16
WIRE 1184 176 1184 48
WIRE 1232 176 1184 176
WIRE 1264 176 1264 160
WIRE 1344 192 1344 48
WIRE 1344 192 1296 192
WIRE 1392 192 1392 -352
WIRE 1392 192 1344 192
WIRE 1424 192 1392 192
WIRE 1120 208 1088 208
WIRE 1232 208 1200 208
WIRE 336 224 336 192
WIRE 656 224 656 192
WIRE 976 224 976 192
WIRE 1264 240 1264 224
WIRE -256 256 -256 144
WIRE -160 256 -160 224
FLAG -256 256 0
FLAG -256 16 Vbat
FLAG 400 32 Vbat
FLAG 400 128 0
FLAG 336 224 0
FLAG -160 -160 Vbat
FLAG 720 16 Vbat
FLAG 720 112 0
FLAG 656 224 0
FLAG 976 224 0
FLAG 1264 160 Vbat
FLAG 1264 240 0
FLAG 1424 192 Vout
IOPIN 1424 192 Out
FLAG -160 256 0
FLAG 464 -96 phase1
FLAG 784 -96 phase2
FLAG 976 48 phase3
FLAG -48 64 0
FLAG 16 -80 Vb
FLAG -48 -128 Vbat
FLAG 336 -240 Vb
FLAG 656 -240 Vb
FLAG 1088 208 Vb
SYMBOL voltage -256 48 R0
WINDOW 123 0 0 Left 0
WINDOW 39 0 0 Left 0
SYMATTR InstName V1
SYMATTR Value 9
SYMBOL res 288 64 R90
WINDOW 0 0 56 VBottom 0
WINDOW 3 32 56 VTop 0
SYMATTR InstName R1
SYMATTR Value 10k
SYMBOL res 1136 32 R90
WINDOW 0 0 56 VBottom 0
WINDOW 3 32 56 VTop 0
SYMATTR InstName R4
SYMATTR Value 100k
SYMBOL res -144 240 R180
WINDOW 0 36 76 Left 0
WINDOW 3 36 40 Left 0
SYMATTR InstName R7
SYMATTR Value 10k
SYMBOL cap 320 128 R0
SYMATTR InstName C1
SYMATTR Value 10n
SYMBOL res 608 48 R90
WINDOW 0 0 56 VBottom 0
WINDOW 3 32 56 VTop 0
SYMATTR InstName R2
SYMATTR Value 10k
SYMBOL cap 640 128 R0
SYMATTR InstName C2
SYMATTR Value 10n
SYMBOL res 928 32 R90
WINDOW 0 0 56 VBottom 0
WINDOW 3 32 56 VTop 0
SYMATTR InstName R3
SYMATTR Value 10k
SYMBOL cap 960 128 R0
SYMATTR InstName C3
SYMATTR Value 10n
SYMBOL res 1328 32 R90
WINDOW 0 0 56 VBottom 0
WINDOW 3 32 56 VTop 0
SYMATTR InstName R5
SYMATTR Value 210k
SYMBOL res -144 -32 R180
WINDOW 0 36 76 Left 0
WINDOW 3 36 40 Left 0
SYMATTR InstName R6
SYMATTR Value 20k
SYMBOL res 1104 224 R270
WINDOW 0 32 56 VTop 0
WINDOW 3 0 56 VBottom 0
SYMATTR InstName R8
SYMATTR Value 100k
SYMBOL res 352 -112 R180
WINDOW 0 36 76 Left 0
WINDOW 3 36 40 Left 0
SYMATTR InstName R9
SYMATTR Value 100k
SYMBOL res 464 -112 R90
WINDOW 0 0 56 VBottom 0
WINDOW 3 32 56 VTop 0
SYMATTR InstName R10
SYMATTR Value 100k
SYMBOL res 784 -112 R90
WINDOW 0 0 56 VBottom 0
WINDOW 3 32 56 VTop 0
SYMATTR InstName R11
SYMATTR Value 100k
SYMBOL res 672 -112 R180
WINDOW 0 36 76 Left 0
WINDOW 3 36 40 Left 0
SYMATTR InstName R12
SYMATTR Value 100k
SYMBOL Robertugo\\OPAMP5 400 0 R0
SYMATTR InstName U1b
SYMATTR SpiceModel level2
SYMBOL Robertugo\\OPAMP5 -48 -64 R0
SYMATTR InstName U1a
SYMATTR SpiceModel level2
SYMBOL Robertugo\\OPAMP5 720 -16 R0
SYMATTR InstName U1c
SYMATTR SpiceModel level2
SYMBOL Robertugo\\OPAMP5 1264 128 R0
SYMATTR InstName U1d
SYMATTR SpiceModel level2
TEXT -240 376 Left 0 !.tran 3ms startup
