.SUBCKT pot 1 2 3
.param tap=limit(T,.001,.999)
R0 1 3 {R*(1-tap)}
R1 3 2 {R*tap}
.ENDS
