Version 4
SHEET 1 880 680
WIRE 112 144 -32 144
WIRE 320 144 256 144
WIRE 16 224 -32 224
WIRE 80 224 16 224
WIRE 112 224 80 224
WIRE 320 224 256 224
WIRE 80 288 80 224
WIRE 208 288 80 288
WIRE 320 288 320 224
WIRE 320 288 288 288
FLAG 16 224 0
SYMBOL Led_Ldr 160 160 R0
SYMATTR InstName X1
SYMBOL voltage -32 128 R0
WINDOW 0 -28 56 Left 0
WINDOW 3 50 191 Left 0
WINDOW 123 0 0 Left 0
WINDOW 39 32 80 Left 0
SYMATTR InstName Vctrl
SYMATTR Value PULSE(0 3 0 250m 250m 1p 500m)
SYMATTR SpiceLine Rser=10
SYMBOL voltage 320 128 R0
WINDOW 0 -28 56 Left 0
WINDOW 3 -61 52 Left 0
WINDOW 123 0 0 Left 0
WINDOW 39 -53 -2 Left 0
SYMATTR InstName Vcc
SYMATTR Value 1
SYMATTR SpiceLine Rser=1k
SYMBOL res 304 272 R90
WINDOW 0 16 104 VBottom 0
WINDOW 3 -12 20 VTop 0
SYMATTR InstName R1
SYMATTR Value 1e9
TEXT -40 272 Left 0 !.tran 1
