Version 4
SHEET 1 908 708
WIRE 304 208 208 208
WIRE 608 208 448 208
WIRE 688 208 608 208
WIRE 784 208 752 208
WIRE 480 240 448 240
WIRE 608 256 608 208
WIRE 784 256 784 208
WIRE 304 288 272 288
WIRE 480 288 480 240
WIRE 480 288 448 288
WIRE 208 304 208 288
WIRE 272 304 272 288
WIRE 480 336 480 288
FLAG 208 304 0
FLAG 608 336 0
FLAG 608 208 o1
FLAG 272 304 0
FLAG 480 336 0
FLAG 784 336 0
SYMBOL current 208 288 R180
WINDOW 0 6 41 Left 0
WINDOW 3 -247 -55 Left 0
WINDOW 123 0 0 Left 0
WINDOW 39 0 0 Left 0
SYMATTR InstName I1
SYMATTR Value PULSE(0 10m 5n 5n 5n 1)
SYMBOL current 608 336 R180
WINDOW 0 6 40 Left 0
WINDOW 3 11 87 Left 0
WINDOW 123 0 0 Left 0
WINDOW 39 0 0 Left 0
SYMATTR InstName I2
SYMATTR Value 1m
SYMBOL voltage 784 240 R0
WINDOW 123 0 0 Left 0
WINDOW 39 0 0 Left 0
WINDOW 0 -62 58 Left 0
WINDOW 3 -13 61 Left 0
SYMATTR InstName V1
SYMATTR Value 99
SYMBOL diode 688 224 R270
WINDOW 0 16 -4 VTop 0
WINDOW 3 44 68 VBottom 0
SYMATTR InstName D1
SYMBOL Robertugo\\Led_Ldr_My 352 224 R0
SYMATTR InstName U1
SYMATTR SpiceModel Vtl5c2_A
TEXT 104 136 Left 0 ;.tran 0 240m 0 .1m
TEXT 104 160 Left 0 !.tran 0 1m 0 0.1m
TEXT 320 136 Left 0 ;for 10mA->0
TEXT 112 184 Left 0 ;for 0->10mA
