Version 4
SHEET 1 880 680
WIRE 64 -128 16 -128
WIRE 192 -128 128 -128
WIRE -512 -16 -608 -16
WIRE -384 -16 -512 -16
WIRE -256 -16 -304 -16
WIRE 16 -16 16 -128
WIRE 16 -16 -256 -16
WIRE 64 -16 16 -16
WIRE 192 -16 192 -128
WIRE 192 -16 144 -16
WIRE 288 -16 192 -16
WIRE 112 80 96 80
WIRE 224 80 192 80
WIRE -608 128 -608 -16
WIRE 0 128 0 96
WIRE -192 144 -192 112
WIRE -256 160 -256 -16
WIRE -224 160 -256 160
WIRE 96 160 96 80
WIRE -96 176 -160 176
WIRE -48 176 -96 176
WIRE -224 192 -256 192
WIRE -256 224 -256 192
WIRE 160 224 144 224
WIRE 224 224 224 80
WIRE 224 224 160 224
WIRE 288 224 288 -16
WIRE 288 224 224 224
WIRE 336 224 288 224
WIRE 368 224 336 224
WIRE -608 240 -608 208
WIRE -192 240 -192 208
WIRE 160 240 160 224
WIRE -48 272 -80 272
WIRE 368 272 368 224
WIRE -80 304 -80 272
WIRE 96 320 96 288
WIRE 160 320 160 304
WIRE 160 320 96 320
WIRE 0 352 0 320
WIRE 48 384 48 304
WIRE 96 384 48 384
WIRE 224 384 224 224
WIRE 224 384 176 384
WIRE 368 384 368 352
WIRE -608 480 -608 448
WIRE -480 480 -480 448
WIRE -336 480 -336 448
WIRE -208 480 -208 448
WIRE -608 592 -608 560
WIRE -480 592 -480 560
WIRE -336 592 -336 560
WIRE -208 592 -208 560
FLAG 0 96 +80V
FLAG 0 352 -80V
FLAG -608 240 0
FLAG -208 592 0
FLAG -336 592 0
FLAG -336 448 +80V
FLAG -208 448 -80V
FLAG 368 384 0
FLAG -80 304 0
FLAG -480 592 0
FLAG -608 592 0
FLAG -608 448 +15V
FLAG -480 448 -15V
FLAG -192 112 +15V
FLAG -192 240 -15V
FLAG -256 224 0
FLAG -96 176 op2
FLAG -512 -16 in
FLAG 336 224 out
SYMBOL res 80 400 R270
WINDOW 0 32 56 VTop 0
WINDOW 3 0 56 VBottom 0
SYMATTR InstName RG
SYMATTR Value 6.6k
SYMBOL res 96 96 R270
WINDOW 0 32 56 VTop 0
WINDOW 3 0 56 VBottom 0
SYMATTR InstName Rcl
SYMATTR Value 1
SYMBOL cap 144 240 R0
SYMATTR InstName CC
SYMATTR Value 10p
SYMBOL res 352 256 R0
SYMATTR InstName R3
SYMATTR Value 300
SYMBOL res 48 0 R270
WINDOW 0 32 56 VTop 0
WINDOW 3 0 56 VBottom 0
SYMATTR InstName Rf
SYMATTR Value 8k
SYMBOL voltage -608 112 R0
WINDOW 123 0 0 Left 0
WINDOW 39 26 97 Left 0
WINDOW 3 -24 170 Left 0
SYMATTR Value PULSE(-1 1 0 10n 10n 500u 1000u)
SYMATTR InstName V1
SYMBOL voltage -336 464 R0
SYMATTR InstName V2
SYMATTR Value 80
SYMBOL voltage -208 464 R0
SYMATTR InstName V3
SYMATTR Value -80
SYMBOL res -400 0 R270
WINDOW 0 32 56 VTop 0
WINDOW 3 0 56 VBottom 0
SYMATTR InstName R1
SYMATTR Value 200
SYMBOL voltage -608 464 R0
SYMATTR InstName V4
SYMATTR Value 15
SYMBOL voltage -480 464 R0
SYMATTR InstName V5
SYMATTR Value -15
SYMBOL cap 64 -112 R270
WINDOW 0 32 32 VTop 0
WINDOW 3 0 32 VBottom 0
SYMATTR InstName Cf
SYMATTR Value 220p
SYMBOL pb50 112 224 R0
SYMATTR InstName U1
SYMBOL Opamps\\opamp2 -192 112 R0
SYMATTR InstName U2
SYMATTR Value TL082
TEXT -608 -128 Left 0 !.tran 0 2m 0 1u
TEXT -616 -96 Left 0 !.options plotwinsize=0
TEXT -624 -192 Left 0 ;.include PB58A.lib
TEXT 32 456 Left 0 ;RG = [ (Av-1) *3.1K] - 6.2K
TEXT 304 88 Left 0 ;Rcl=0.65/Imax
TEXT -344 -312 Left 0 ;Test Circuit PB50, PB51, PB58\n \nDesign Guidelines:\nPPxxgain >3\nTotal gain >= 3*PBxx_gain
TEXT 40 -192 Left 0 ;See datasheet
TEXT -624 -224 Left 0 ;.include PB58.lib
TEXT -624 -256 Left 0 ;.include PB51A.lib
TEXT -624 -288 Left 0 ;.include PB51.lib
TEXT -624 -320 Left 0 !.include PB50.lib
TEXT 32 -312 Left 0 ;To change the model, just change the value PB50 in \nthe instance U1 to PB50, PB51, PB51A, PB58, PB58A\nand enable the appropriate include-directive.
TEXT -616 -152 Left 0 !.lib Opamp5.lib
