Version 4
SHEET 1 896 680
WIRE -288 96 -544 96
WIRE -544 112 -544 96
WIRE -112 112 -112 96
WIRE -288 128 -288 96
WIRE -176 128 -288 128
WIRE -176 160 -288 160
WIRE 0 176 -48 176
WIRE -176 192 -224 192
WIRE -544 208 -544 192
WIRE -288 208 -288 160
WIRE -288 208 -544 208
WIRE -768 224 -768 208
WIRE -640 224 -640 208
WIRE -544 224 -544 208
WIRE -176 224 -208 224
WIRE -112 256 -112 240
WIRE -768 320 -768 304
WIRE -640 320 -640 304
WIRE -304 336 -320 336
WIRE -208 336 -208 224
WIRE -208 336 -224 336
WIRE -144 336 -208 336
WIRE 0 336 0 176
WIRE 0 336 -64 336
FLAG -640 320 0
FLAG -112 96 +V
FLAG -640 208 +V
FLAG -112 256 -V
FLAG -768 320 0
FLAG -768 208 -V
FLAG -320 336 0
FLAG -544 224 0
FLAG -224 192 0
SYMBOL voltage -640 208 R0
SYMATTR InstName V1
SYMATTR Value 5
SYMBOL voltage -768 208 R0
SYMATTR InstName V2
SYMATTR Value -5
SYMBOL res -48 320 R90
WINDOW 0 0 56 VBottom 2
WINDOW 3 32 56 VTop 2
SYMATTR InstName R1
SYMATTR Value 1K
SYMBOL res -208 320 R90
WINDOW 0 0 56 VBottom 2
WINDOW 3 32 56 VTop 2
SYMATTR InstName R2
SYMATTR Value 1K
SYMBOL voltage -544 96 R0
SYMATTR Value SINE(0 10m 100K)
SYMATTR InstName V3
SYMBOL opamps\\LT1187 -112 176 R0
SYMATTR InstName U1
TEXT -56 416 Left 2 !.tran 1m
