Version 4
SHEET 1 2336 1256
WIRE 1360 -48 896 -48
WIRE 896 -32 896 -48
WIRE 1360 -16 1360 -48
WIRE 896 64 896 48
WIRE 1360 80 1360 64
WIRE 1360 80 1328 80
WIRE 1232 192 1232 176
FLAG 896 64 0
FLAG 1232 192 0
FLAG 1360 80 OUT
FLAG 896 -48 IN
SYMBOL voltage 896 -48 R0
SYMATTR InstName V1
SYMATTR Value pwl(0 0 1u 12)
SYMBOL LT1236-10 1232 80 R0
SYMATTR InstName U1
SYMBOL res 1344 -32 R0
SYMATTR InstName R1
SYMATTR Value 1K
TEXT 1376 192 Left 2 !.tran 20u
