Version 4
SHEET 1 1668 944
WIRE 544 464 448 464
WIRE 704 464 544 464
WIRE 752 464 704 464
WIRE 880 464 832 464
WIRE 928 464 880 464
WIRE 1040 464 992 464
WIRE 1104 464 1040 464
WIRE 448 480 448 464
WIRE 1104 480 1104 464
WIRE 704 512 704 464
WIRE 448 576 448 560
WIRE 544 576 544 464
WIRE 560 576 544 576
WIRE 880 576 880 464
WIRE 880 576 848 576
WIRE 1104 576 1104 560
WIRE 560 656 544 656
WIRE 1040 656 1040 464
WIRE 1040 656 848 656
WIRE 1040 672 1040 656
WIRE 560 736 544 736
WIRE 864 736 848 736
WIRE 1040 752 1040 736
WIRE 704 816 704 800
FLAG 704 816 0
FLAG 1104 576 0
FLAG 1040 752 0
FLAG 448 576 0
FLAG 1104 464 OUT
FLAG 448 464 IN
SYMBOL POLCAP 1024 672 R0
SYMATTR InstName C1
SYMATTR Value 100µ
SYMATTR SpiceLine Rser=0.02
SYMBOL SCHOTTKY 928 480 R270
WINDOW 0 32 32 VTop 2
WINDOW 3 0 32 VBottom 2
SYMATTR InstName D1
SYMATTR Value MBRS140
SYMBOL IND 736 480 R270
WINDOW 0 32 56 VTop 2
WINDOW 3 5 56 VBottom 2
SYMATTR InstName L1
SYMATTR Value 22µ
SYMATTR SpiceLine Rser=0.02 Rpar=5000
SYMBOL VOLTAGE 448 464 R0
SYMATTR InstName V1
SYMATTR Value 3
SYMBOL PowerProducts\\LT1304-5 704 656 R0
SYMATTR InstName U1
SYMBOL res 1088 464 R0
SYMATTR InstName Rload
SYMATTR Value 25
TEXT 944 800 Left 2 !.tran 1m startup
