Version 4
SHEET 1 2912 2372
WIRE 2192 2016 2160 2016
WIRE 2272 2016 2256 2016
WIRE 2704 2016 2560 2016
WIRE 2816 2016 2704 2016
WIRE 2704 2032 2704 2016
WIRE 2816 2032 2816 2016
WIRE 2272 2080 2208 2080
WIRE 2608 2080 2560 2080
WIRE 2704 2128 2704 2096
WIRE 2816 2128 2816 2112
WIRE 2272 2144 2208 2144
WIRE 2608 2144 2560 2144
WIRE 2272 2208 2224 2208
WIRE 2608 2208 2560 2208
WIRE 2608 2240 2608 2208
WIRE 2608 2352 2608 2320
FLAG 2224 2208 0
FLAG 2160 2016 0
FLAG 2704 2128 0
FLAG 2816 2128 0
FLAG 2608 2352 0
FLAG 2816 2016 OUT
FLAG 2608 2208 IN
SYMBOL PowerProducts\\LTC1502-3.3 2416 2112 R0
SYMATTR InstName U1
SYMBOL cap 2192 2080 R0
WINDOW 0 32 15 Left 2
WINDOW 3 34 49 Left 2
SYMATTR InstName C1
SYMATTR Value 1µ
SYMBOL cap 2592 2080 R0
SYMATTR InstName C2
SYMATTR Value 1µ
SYMBOL cap 2256 2000 R90
WINDOW 0 0 32 VBottom 2
WINDOW 3 32 32 VTop 2
SYMATTR InstName C3
SYMATTR Value 10µ
SYMBOL cap 2688 2032 R0
SYMATTR InstName C4
SYMATTR Value 10µ
SYMBOL res 2800 2016 R0
SYMATTR InstName Rload
SYMATTR Value 100
SYMBOL voltage 2608 2224 R0
SYMATTR InstName V1
SYMATTR Value 1.4
TEXT 2720 2224 Left 2 !.tran 2m startup
