Version 4
SHEET 1 2760 2264
WIRE 2304 1872 2016 1872
WIRE 2016 1888 2016 1872
WIRE 2304 1904 2304 1872
WIRE 2160 1968 2096 1968
WIRE 2512 1968 2448 1968
WIRE 2592 1968 2512 1968
WIRE 2016 1984 2016 1968
WIRE 2512 1984 2512 1968
WIRE 2592 1984 2592 1968
WIRE 2096 2000 2096 1968
WIRE 2512 2080 2512 2048
WIRE 2592 2080 2592 2064
WIRE 2096 2096 2096 2064
WIRE 2160 2096 2096 2096
WIRE 2464 2096 2448 2096
WIRE 2304 2176 2304 2160
FLAG 2464 2096 0
FLAG 2016 1984 0
FLAG 2512 2080 0
FLAG 2592 2080 0
FLAG 2304 2176 0
FLAG 2592 1968 OUT
FLAG 2016 1872 IN
SYMBOL cap 2080 2064 M180
WINDOW 0 24 64 Left 2
WINDOW 3 24 8 Left 2
SYMATTR InstName C1
SYMATTR Value .22µ
SYMBOL VOLTAGE 2016 1872 R0
SYMATTR InstName V1
SYMATTR Value 3
SYMBOL cap 2496 1984 R0
SYMATTR InstName C2
SYMATTR Value 10µ
SYMBOL RES 2576 1968 R0
SYMATTR InstName Rload
SYMATTR Value 200
SYMBOL PowerProducts\\LTC1522 2304 2032 R0
SYMATTR InstName U1
TEXT 2408 2200 Left 2 !.tran 1m startup
