Version 4
SHEET 1 1492 1120
WIRE 480 528 368 528
WIRE 624 528 480 528
WIRE 368 544 368 528
WIRE 624 544 624 528
WIRE 832 560 800 560
WIRE 944 560 912 560
WIRE 1056 560 944 560
WIRE 1152 560 1056 560
WIRE 944 576 944 560
WIRE 1056 576 1056 560
WIRE 1152 576 1152 560
WIRE 480 608 480 528
WIRE 496 608 480 608
WIRE 800 608 800 560
WIRE 800 608 752 608
WIRE 368 640 368 624
WIRE 480 672 480 608
WIRE 496 672 480 672
WIRE 944 672 944 656
WIRE 944 672 752 672
WIRE 1056 672 1056 640
WIRE 1152 672 1152 656
WIRE 944 688 944 672
WIRE 624 768 624 736
WIRE 944 784 944 768
FLAG 1152 560 OUT
FLAG 368 528 IN
FLAG 1056 672 0
FLAG 1152 672 0
FLAG 624 768 0
FLAG 944 784 0
FLAG 368 640 0
SYMBOL VOLTAGE 368 528 R0
SYMATTR InstName V1
SYMATTR Value 9
SYMBOL RES 928 672 R0
SYMATTR InstName R2
SYMATTR Value 31.5K
SYMBOL RES 928 560 R0
SYMATTR InstName R1
SYMATTR Value 93.5K
SYMBOL IND 816 576 R270
WINDOW 0 32 56 VTop 2
WINDOW 3 5 56 VBottom 2
SYMATTR InstName L1
SYMATTR Value 100µ
SYMATTR SpiceLine Rser=0.02 Rpar=5000
SYMBOL POLCAP 1040 576 R0
SYMATTR InstName C2
SYMATTR Value 100µ
SYMATTR SpiceLine Rser=0.02
SYMBOL PowerProducts\\LTC1574HV 624 624 R0
SYMATTR InstName U1
SYMBOL res 1136 560 R0
SYMATTR InstName Rload
SYMATTR Value 25
TEXT 1000 848 Left 2 !.tran 3m startup
