Version 4
SHEET 1 880 680
WIRE 0 48 -208 48
WIRE 320 48 256 48
WIRE 416 48 320 48
WIRE -208 64 -208 48
WIRE 320 64 320 48
WIRE 416 64 416 48
WIRE -208 160 -208 144
WIRE 320 160 320 128
WIRE 416 160 416 144
WIRE 128 176 128 160
FLAG -208 160 0
FLAG 320 160 0
FLAG 416 160 0
FLAG 128 176 0
FLAG 416 48 OUT
FLAG -208 48 IN
SYMBOL voltage -208 48 R0
SYMATTR InstName V1
SYMATTR Value PWL(0 0 1 10)
SYMBOL cap 304 64 R0
SYMATTR InstName C1
SYMATTR Value 1µ
SYMBOL res 400 48 R0
SYMATTR InstName Rload
SYMATTR Value 1K
SYMBOL PowerProducts\\LT1790-1.25 128 48 R0
SYMATTR InstName U1
TEXT 288 208 Left 2 !.tran 1
