Version 4
SHEET 1 1048 900
WIRE -448 -384 -464 -384
WIRE -272 -384 -368 -384
WIRE -16 -384 -112 -384
WIRE 80 -384 64 -384
WIRE -272 -272 -272 -384
WIRE -112 -272 -112 -384
WIRE -560 -208 -688 -208
WIRE -432 -208 -560 -208
WIRE -688 -192 -688 -208
WIRE -688 -96 -688 -112
WIRE -464 -96 -688 -96
WIRE -432 -96 -464 -96
WIRE -688 -80 -688 -96
WIRE 288 -48 240 -48
WIRE 416 -48 368 -48
WIRE 496 -48 416 -48
WIRE 496 -32 496 -48
WIRE -688 16 -688 0
WIRE -512 16 -688 16
WIRE -432 16 -512 16
WIRE -688 32 -688 16
WIRE 496 64 496 48
WIRE 288 80 240 80
WIRE 416 80 416 -48
WIRE 416 80 368 80
WIRE -688 128 -688 112
WIRE -464 128 -464 -96
WIRE -432 128 -464 128
WIRE -512 240 -512 16
WIRE -432 240 -512 240
WIRE 272 240 240 240
WIRE -336 320 -336 304
WIRE -240 320 -240 304
WIRE -48 320 -48 304
WIRE 144 320 144 304
WIRE -560 352 -560 -208
WIRE -144 352 -144 304
WIRE -144 352 -560 352
WIRE 48 352 48 304
WIRE 48 352 -144 352
FLAG -464 -384 0
FLAG 496 64 0
FLAG 272 240 0
FLAG 80 -384 0
FLAG 144 320 0
FLAG -688 128 0
FLAG -336 320 0
FLAG -240 320 0
FLAG -48 320 0
SYMBOL res 384 -64 R90
WINDOW 0 0 56 VBottom 2
WINDOW 3 32 56 VTop 2
SYMATTR InstName R1
SYMATTR Value 100K
SYMBOL voltage 496 -48 R0
SYMATTR InstName V3
SYMATTR Value 5
SYMBOL LTC2966 -96 16 R0
SYMATTR InstName U1
SYMBOL res 384 64 R90
WINDOW 0 0 56 VBottom 2
WINDOW 3 32 56 VTop 2
SYMATTR InstName R2
SYMATTR Value 100K
SYMBOL res -704 -208 R0
SYMATTR InstName R3
SYMATTR Value 200K
SYMBOL res -704 -96 R0
SYMATTR InstName R4
SYMATTR Value 90.9K
SYMBOL res -704 16 R0
SYMATTR InstName R5
SYMATTR Value 909K
SYMBOL voltage -352 -384 R90
WINDOW 0 -32 56 VBottom 2
WINDOW 3 32 103 VTop 2
WINDOW 123 0 0 Left 2
WINDOW 39 0 0 Left 2
SYMATTR InstName V1
SYMATTR Value PWL(0 0 20u 0 10m 48 20m 0)
SYMBOL voltage -32 -384 R270
WINDOW 0 60 56 VBottom 2
WINDOW 3 -65 99 VTop 2
WINDOW 123 0 0 Left 2
WINDOW 39 0 0 Left 2
SYMATTR InstName V2
SYMATTR Value PWL(0 0 20u 0 10m 24 20m 0)
TEXT 344 176 Left 2 !.tran 22m startup
