Version 4
SHEET 1 888 680
WIRE -32 48 -128 48
WIRE 32 48 -32 48
WIRE 64 48 32 48
WIRE 384 48 320 48
WIRE 512 48 384 48
WIRE 624 48 512 48
WIRE -128 64 -128 48
WIRE 384 64 384 48
WIRE 512 64 512 48
WIRE 624 64 624 48
WIRE -128 160 -128 144
WIRE 32 160 32 48
WIRE 64 160 32 160
WIRE 384 160 384 144
WIRE 384 160 320 160
WIRE 512 160 512 128
WIRE 624 160 624 144
WIRE -32 176 -32 48
WIRE 384 176 384 160
WIRE -32 272 -32 256
WIRE 64 272 -32 272
WIRE 384 272 384 256
WIRE 64 384 32 384
WIRE 352 384 320 384
WIRE 448 384 432 384
WIRE 192 448 192 432
FLAG -128 160 0
FLAG 192 448 0
FLAG 448 384 0
FLAG 384 272 0
FLAG -128 48 IN
FLAG 624 48 OUT
FLAG 624 160 0
FLAG 512 160 0
FLAG 32 384 0
SYMBOL PowerProducts\\LT3033 192 208 R0
SYMATTR InstName U1
SYMBOL voltage -128 48 R0
SYMATTR InstName V1
SYMATTR Value 1.2
SYMBOL res 368 48 R0
SYMATTR InstName R1
SYMATTR Value 13.7K
SYMBOL res 368 160 R0
SYMATTR InstName R2
SYMATTR Value 3.92K
SYMBOL res 448 368 R90
WINDOW 0 0 56 VBottom 2
WINDOW 3 32 56 VTop 2
SYMATTR InstName R3
SYMATTR Value 442
SYMBOL res -48 160 R0
SYMATTR InstName R4
SYMATTR Value 100K
SYMBOL res 608 48 R0
SYMATTR InstName Rload
SYMATTR Value 900
SYMBOL cap 496 64 R0
SYMATTR InstName C1
SYMATTR Value 47µ
TEXT 632 504 Left 2 !.tran 1m startup
