Version 4
SHEET 1 984 744
WIRE 112 -208 80 -208
WIRE 192 -208 176 -208
WIRE 224 -208 192 -208
WIRE 320 -208 304 -208
WIRE 352 -208 320 -208
WIRE 432 -208 416 -208
WIRE 80 -160 80 -208
WIRE 192 -160 192 -208
WIRE 320 -160 320 -208
WIRE 432 -160 432 -208
WIRE 32 -96 -160 -96
WIRE 704 -96 480 -96
WIRE 816 -96 704 -96
WIRE 928 -96 816 -96
WIRE -160 -80 -160 -96
WIRE 816 -80 816 -96
WIRE 928 -80 928 -96
WIRE -48 0 -64 0
WIRE 32 0 16 0
WIRE 704 0 704 -16
WIRE 704 0 480 0
WIRE -160 16 -160 0
WIRE 704 16 704 0
WIRE 816 16 816 -16
WIRE 928 16 928 0
WIRE 32 96 -32 96
WIRE 544 96 480 96
WIRE 624 96 608 96
WIRE -32 112 -32 96
WIRE 704 112 704 96
WIRE -32 192 -32 176
WIRE 32 192 -32 192
WIRE 32 288 -32 288
WIRE -32 304 -32 288
WIRE -32 384 -32 368
WIRE 32 384 -32 384
WIRE 32 480 -144 480
WIRE 496 480 480 480
WIRE -144 496 -144 480
WIRE -48 576 -64 576
WIRE 32 576 16 576
WIRE 496 576 480 576
WIRE 576 576 560 576
WIRE -144 592 -144 576
WIRE 80 656 80 640
WIRE 192 656 192 640
WIRE 320 656 320 640
WIRE 432 656 432 640
FLAG 432 656 0
FLAG 80 656 0
FLAG 576 576 0
FLAG 624 96 0
FLAG -64 0 0
FLAG -160 16 0
FLAG -64 576 0
FLAG -144 592 0
FLAG 496 480 0
FLAG 816 16 0
FLAG 928 16 0
FLAG 704 112 0
FLAG -160 -96 IN1
FLAG -144 480 IN2
FLAG 928 -96 OUT
FLAG 192 656 IN1
FLAG 320 656 IN2
SYMBOL PowerProducts\\LTC3118 256 240 R0
SYMATTR InstName U1
SYMBOL ind 208 -192 R270
WINDOW 0 32 56 VTop 2
WINDOW 3 5 56 VBottom 2
SYMATTR InstName L1
SYMATTR Value 3.3µ
SYMATTR Value2 Rser=10m
SYMATTR SpiceLine Rpar=20K
SYMBOL cap 176 -224 R90
WINDOW 0 0 32 VBottom 2
WINDOW 3 32 32 VTop 2
SYMATTR InstName C1
SYMATTR Value .1µ
SYMBOL cap 416 -224 R90
WINDOW 0 0 32 VBottom 2
WINDOW 3 32 32 VTop 2
SYMATTR InstName C2
SYMATTR Value .1µ
SYMBOL voltage -160 -96 R0
SYMATTR InstName V1
SYMATTR Value 12
SYMBOL voltage -144 480 R0
SYMATTR InstName V2
SYMATTR Value 5
SYMBOL cap 16 560 R90
WINDOW 0 0 32 VBottom 2
WINDOW 3 32 32 VTop 2
SYMATTR InstName C3
SYMATTR Value 47n
SYMBOL cap -48 368 M180
WINDOW 0 24 56 Left 2
WINDOW 3 24 8 Left 2
SYMATTR InstName C4
SYMATTR Value 10n
SYMBOL cap -48 176 M180
WINDOW 0 24 56 Left 2
WINDOW 3 24 8 Left 2
SYMATTR InstName C5
SYMATTR Value 10n
SYMBOL cap -48 16 R270
WINDOW 0 32 32 VTop 2
WINDOW 3 0 32 VBottom 2
SYMATTR InstName C6
SYMATTR Value 47n
SYMBOL cap 544 112 R270
WINDOW 0 32 32 VTop 2
WINDOW 3 0 32 VBottom 2
WINDOW 123 -42 32 VBottom 2
WINDOW 39 -21 32 VBottom 2
SYMATTR InstName C7
SYMATTR Value 1.8n
SYMATTR Value2 Rser=40.2K
SYMATTR SpiceLine Cpar=22p
SYMBOL cap 496 592 R270
WINDOW 0 32 32 VTop 2
WINDOW 3 0 32 VBottom 2
SYMATTR InstName C8
SYMATTR Value 4.7µ
SYMBOL cap 800 -80 R0
SYMATTR InstName C9
SYMATTR Value 150µ
SYMBOL res 912 -96 R0
SYMATTR InstName R1
SYMATTR Value 2
SYMBOL res 688 -112 R0
SYMATTR InstName R2
SYMATTR Value 400K
SYMBOL res 688 0 R0
SYMATTR InstName R3
SYMATTR Value 100K
TEXT 560 664 Left 2 !.tran 2m startup
