Version 4
SHEET 1 880 680
WIRE 416 64 384 64
WIRE 528 64 496 64
WIRE 656 64 528 64
WIRE 768 64 656 64
WIRE 48 80 -48 80
WIRE 96 80 48 80
WIRE 656 80 656 64
WIRE 768 80 768 64
WIRE -48 96 -48 80
WIRE 48 160 48 80
WIRE 96 160 48 160
WIRE 528 160 528 144
WIRE 528 160 384 160
WIRE 656 176 656 144
WIRE 768 176 768 160
WIRE -48 192 -48 176
WIRE 416 256 384 256
WIRE 528 272 528 240
WIRE -16 352 -48 352
WIRE 96 352 64 352
WIRE 416 352 384 352
FLAG 528 272 0
FLAG -48 192 0
FLAG 656 176 0
FLAG 768 176 0
FLAG -48 352 0
FLAG 416 256 0
FLAG 768 64 OUT
FLAG -48 80 IN
FLAG 416 352 0
SYMBOL voltage -48 80 R0
SYMATTR InstName V1
SYMATTR Value 5
SYMBOL ind 400 80 R270
WINDOW 0 32 56 VTop 2
WINDOW 3 5 56 VBottom 2
SYMATTR InstName L1
SYMATTR Value 2.2µ
SYMATTR SpiceLine Rser=20m
SYMBOL cap 640 80 R0
WINDOW 0 29 15 Left 2
SYMATTR InstName C1
SYMATTR Value 14µ
SYMATTR SpiceLine Rser=2m
SYMBOL res 512 48 R0
SYMATTR InstName R2
SYMATTR Value 590K
SYMBOL res 512 144 R0
SYMATTR InstName R3
SYMATTR Value 200K
SYMBOL res 752 64 R0
SYMATTR InstName Rload
SYMATTR Value 3
SYMBOL res 80 336 R90
WINDOW 0 0 56 VBottom 2
WINDOW 3 32 56 VTop 2
SYMATTR InstName R4
SYMATTR Value 402K
SYMBOL LTC3375 240 208 R0
SYMATTR InstName U1
TEXT 600 376 Left 2 !.tran 2m startup
