Version 4
SHEET 1 980 680
WIRE -32 64 -128 64
WIRE 80 64 -32 64
WIRE 112 64 80 64
WIRE 208 64 192 64
WIRE -128 80 -128 64
WIRE 80 112 80 64
WIRE 208 112 208 64
WIRE -128 176 -128 160
WIRE -32 176 -32 64
WIRE 0 176 -32 176
WIRE 336 176 288 176
WIRE 448 176 336 176
WIRE 608 176 448 176
WIRE 336 192 336 176
WIRE 608 192 608 176
WIRE 448 224 448 176
WIRE 336 272 336 256
WIRE 336 272 288 272
WIRE 608 288 608 272
WIRE -32 368 -32 176
WIRE 0 368 -32 368
WIRE 448 368 448 304
WIRE 448 368 288 368
WIRE 448 384 448 368
WIRE 144 448 144 432
WIRE 448 480 448 464
FLAG 144 448 0
FLAG -128 176 0
FLAG 336 336 0
FLAG 448 480 0
FLAG 608 288 0
FLAG 608 176 OUT
FLAG -128 64 IN
SYMBOL ind 96 80 R270
WINDOW 0 32 56 VTop 2
WINDOW 3 5 56 VBottom 2
SYMATTR InstName L1
SYMATTR Value 22µ
SYMBOL voltage -128 64 R0
WINDOW 3 25 96 Left 2
SYMATTR Value 5
SYMATTR InstName V1
SYMBOL cap 320 192 R0
WINDOW 3 26 57 Left 2
SYMATTR Value .22µ
SYMATTR InstName C1
SYMBOL cap 320 272 R0
WINDOW 3 28 51 Left 2
WINDOW 0 32 13 Left 2
SYMATTR Value .33µ
SYMATTR InstName C2
SYMBOL res 432 208 R0
SYMATTR InstName R1
SYMATTR Value 3.48Meg
SYMBOL res 432 368 R0
SYMATTR InstName R2
SYMATTR Value 294K
SYMBOL res 592 176 R0
SYMATTR InstName Rload
SYMATTR Value 2K
SYMBOL PowerProducts\\LT3464 144 272 R0
SYMATTR InstName U1
TEXT 184 496 Left 2 !.tran 500u startup
