Version 4
SHEET 1 6936 1608
WIRE 160 -512 160 -528
WIRE 160 -432 160 -448
WIRE 160 -432 -144 -432
WIRE 448 -432 160 -432
WIRE -240 -416 -480 -416
WIRE 64 -416 -240 -416
WIRE 624 -416 64 -416
WIRE -480 -400 -480 -416
WIRE -144 -400 -144 -432
WIRE 448 -400 448 -432
WIRE -240 -384 -240 -416
WIRE 624 -384 624 -416
WIRE 64 -368 64 -416
WIRE 160 -368 160 -432
WIRE 256 -368 256 -384
WIRE 352 -368 352 -384
WIRE -480 -304 -480 -320
WIRE 0 -304 -192 -304
WIRE 576 -304 416 -304
WIRE -240 -208 -240 -288
WIRE -224 -208 -240 -208
WIRE -144 -208 -144 -336
WIRE -144 -208 -160 -208
WIRE 0 -208 -144 -208
WIRE 448 -208 448 -336
WIRE 448 -208 416 -208
WIRE 464 -208 448 -208
WIRE 624 -208 624 -288
WIRE 624 -208 528 -208
WIRE -528 -112 -624 -112
WIRE -432 -112 -528 -112
WIRE -416 -112 -432 -112
WIRE -304 -112 -336 -112
WIRE -240 -112 -240 -208
WIRE -240 -112 -304 -112
WIRE 0 -112 -240 -112
WIRE 624 -112 624 -208
WIRE 624 -112 416 -112
WIRE 704 -112 624 -112
WIRE 736 -112 704 -112
WIRE 832 -112 816 -112
WIRE 896 -112 832 -112
WIRE 1008 -112 896 -112
WIRE -624 -96 -624 -112
WIRE -528 -96 -528 -112
WIRE -240 -96 -240 -112
WIRE 624 -96 624 -112
WIRE 896 -96 896 -112
WIRE 1008 -96 1008 -112
WIRE 0 -16 -192 -16
WIRE 576 -16 416 -16
WIRE -624 0 -624 -16
WIRE -528 0 -528 -32
WIRE 896 0 896 -32
WIRE 1008 0 1008 -16
WIRE -240 16 -240 0
WIRE 624 16 624 0
WIRE -304 80 -304 -112
WIRE -256 80 -304 80
WIRE -160 80 -176 80
WIRE 0 80 -160 80
WIRE 448 80 416 80
WIRE 560 80 448 80
WIRE 704 80 704 -112
WIRE 704 80 640 80
WIRE -160 96 -160 80
WIRE 448 96 448 80
WIRE -432 176 -432 -112
WIRE -160 176 -160 160
WIRE -160 176 -432 176
WIRE 0 176 -160 176
WIRE 448 176 448 160
WIRE 448 176 416 176
WIRE 832 176 832 -112
WIRE 832 176 448 176
WIRE -432 272 -432 176
WIRE 0 272 -432 272
WIRE 832 272 832 176
WIRE 832 272 416 272
WIRE 448 368 416 368
WIRE -112 464 -128 464
WIRE 0 464 -48 464
WIRE 464 464 416 464
WIRE 544 464 528 464
WIRE -112 560 -128 560
WIRE 0 560 -48 560
WIRE 464 560 416 560
WIRE 544 560 528 560
WIRE -96 752 -128 752
WIRE 0 752 -16 752
WIRE 528 752 416 752
WIRE 64 832 64 816
WIRE 704 832 64 832
WIRE 64 848 64 832
WIRE 256 848 256 816
WIRE 528 848 528 752
WIRE 704 864 704 832
WIRE 64 928 64 912
WIRE -128 960 -128 752
WIRE 160 960 160 816
WIRE 160 960 -128 960
WIRE 256 960 256 928
WIRE 256 960 160 960
WIRE 528 960 528 928
WIRE 528 960 256 960
WIRE 160 976 160 960
WIRE 352 976 352 816
WIRE 704 976 704 944
WIRE 704 976 352 976
WIRE 704 992 704 976
WIRE 160 1056 160 1040
WIRE 704 1088 704 1072
FLAG 256 -384 0
FLAG 352 -384 0
FLAG 160 -528 0
FLAG -240 16 0
FLAG -528 0 0
FLAG -624 0 0
FLAG -624 -112 OUT1
FLAG -480 -416 IN
FLAG -480 -304 0
FLAG 624 16 0
FLAG 896 0 0
FLAG 1008 0 0
FLAG 1008 -112 OUT0
FLAG 448 368 0
FLAG 544 464 0
FLAG 544 560 0
FLAG -128 464 0
FLAG -128 560 0
FLAG 704 1088 0
FLAG 64 928 0
FLAG 160 1056 0
SYMBOL voltage -480 -416 R0
SYMATTR InstName V1
SYMATTR Value 30
SYMBOL cap 144 -512 R0
SYMATTR InstName C1
SYMATTR Value 1µ
SYMBOL nmos -192 -384 M0
SYMATTR InstName Q1
SYMATTR Value RJK0305DPB
SYMBOL nmos -192 -96 M0
WINDOW 0 0 2 Right 2
WINDOW 3 25 107 Right 2
SYMATTR InstName Q2
SYMATTR Value RJK0301DPB
SYMBOL ind 720 -96 R270
WINDOW 0 32 56 VTop 2
WINDOW 3 5 56 VBottom 2
SYMATTR InstName L1
SYMATTR Value 6.82µ
SYMATTR SpiceLine Rser=4.13m
SYMBOL cap -160 -224 R90
WINDOW 0 0 32 VBottom 2
WINDOW 3 32 32 VTop 2
SYMATTR InstName C2
SYMATTR Value .1µ
SYMBOL schottky -160 -400 R0
SYMATTR Value CMDSH2-3
SYMATTR InstName D1
SYMATTR Description Diode
SYMATTR Type diode
SYMBOL cap 432 96 R0
SYMATTR InstName C3
SYMATTR Value .22µ
SYMBOL res 656 96 M270
WINDOW 0 32 56 VTop 2
WINDOW 3 0 56 VBottom 2
SYMATTR InstName R1
SYMATTR Value 7.5K
SYMBOL cap -544 -96 R0
SYMATTR InstName C5
SYMATTR Value 530µ
SYMATTR SpiceLine Rser=5m
SYMBOL res -640 -112 R0
SYMATTR InstName R2
SYMATTR Value .33
SYMBOL nmos 576 -384 R0
SYMATTR InstName Q3
SYMATTR Value RJK0305DPB
SYMBOL nmos 576 -96 R0
WINDOW 0 -3 20 Right 2
WINDOW 3 28 103 Right 2
SYMATTR InstName Q4
SYMATTR Value RJK0301DPB
SYMBOL ind -320 -96 M270
WINDOW 0 32 56 VTop 2
WINDOW 3 5 56 VBottom 2
SYMATTR InstName L2
SYMATTR Value 3.1µ
SYMATTR SpiceLine Rser=2m
SYMBOL cap 464 -224 M90
WINDOW 0 0 32 VBottom 2
WINDOW 3 32 32 VTop 2
SYMATTR InstName C7
SYMATTR Value .1µ
SYMBOL schottky 432 -400 R0
SYMATTR Value CMDSH2-3
SYMATTR InstName D2
SYMATTR Description Diode
SYMATTR Type diode
SYMBOL cap -176 96 R0
SYMATTR InstName C8
SYMATTR Value .22µ
SYMBOL res -272 96 R270
WINDOW 0 32 56 VTop 2
WINDOW 3 0 56 VBottom 2
SYMATTR InstName R11
SYMATTR Value 6.81K
SYMBOL cap 880 -96 R0
SYMATTR InstName C9
SYMATTR Value 530µ
SYMATTR SpiceLine Rser=5m
SYMBOL res 992 -112 R0
SYMATTR InstName R12
SYMATTR Value 1
SYMBOL cap 464 448 M90
WINDOW 0 0 32 VBottom 2
WINDOW 3 32 32 VTop 2
WINDOW 39 54 90 VTop 2
SYMATTR InstName C4
SYMATTR Value 220p
SYMBOL cap 464 544 M90
WINDOW 0 0 32 VBottom 2
WINDOW 3 32 32 VTop 2
WINDOW 39 54 90 VTop 2
SYMATTR InstName C6
SYMATTR Value 2.2n
SYMBOL cap -48 448 R90
WINDOW 0 0 32 VBottom 2
WINDOW 3 32 32 VTop 2
WINDOW 39 54 90 VTop 2
SYMATTR InstName C10
SYMATTR Value 220p
SYMBOL cap -48 544 R90
WINDOW 0 0 32 VBottom 2
WINDOW 3 32 32 VTop 2
WINDOW 39 54 90 VTop 2
SYMATTR InstName C11
SYMATTR Value 4.7n
SYMBOL res -112 768 R270
WINDOW 0 32 56 VTop 2
WINDOW 3 0 56 VBottom 2
SYMATTR InstName R3
SYMATTR Value 10K
SYMBOL res 240 832 R0
SYMATTR InstName R4
SYMATTR Value 4.99K
SYMBOL res 688 848 R0
SYMATTR InstName R5
SYMATTR Value 24.9K
SYMBOL res 688 976 R0
SYMATTR InstName R6
SYMATTR Value 11.3K
SYMBOL res 512 944 M180
WINDOW 0 36 76 Left 2
WINDOW 3 36 40 Left 2
SYMATTR InstName R7
SYMATTR Value 10K
SYMBOL cap 48 848 R0
SYMATTR InstName C12
SYMATTR Value 1µ
SYMBOL cap 144 976 R0
SYMATTR InstName C13
SYMATTR Value 1µ
SYMBOL LTC3886 208 224 R0
SYMATTR InstName U1
SYMATTR SpiceLine Vout_0=12 Vout_1=5 Ilim0_range=1 Ilim1_range=1 OC_limit0=1 OC_limit1=1 Mode_ll=2 Fault_response=0 Retry_delay=.1m gm0=3m gm1=3m Rth0=5K Rth1=5K
SYMATTR SpiceLine2 Freq=500K PHs_0=0 PHs_1=180 Ton0_delay=.3m Ton0_rise=.5m Ton1_delay=.3m Ton1_rise=.5m Toff0_delay=.2m Toff0_fall=.3m Toff1_delay=.2m Toff1_fall=.3m Vout0_range=0 Vout1_range=1
TEXT 784 384 Left 2 !.tran 1.6m startup
TEXT 1136 -416 Left 2 ;Notes for simulation\n \nPlease read the following notes carefully since the model behaves differently from the user \ninterface for the LTC3886.\n \n(1) PMBus communication and memory address related functions and pins are not modeled.  \n(2) Changes to parameter values while the simulation is running will not take effect unless the\nsimulation is stopped and restarted. This is different from the way the part operates which will\nrespond to the changes while running.  \n(3) Share_clk is not modeled. The default time reference of LTspice is used as the common time \nbase for all time-related parameters.\n \n \nDescription of parameters\n \nThe following parameters can be defined by right-clicking on the LTC3886 symbol.\nThe nomenclature used here differs from the one in the data sheet. If any value of these parameters is\nset beyond the scope described in the data sheet, the resulting simulation will not be meaningful.\n \nFreq -- in Hz, sets switching frequency as one of values of 250k, 350k, 425k, 500k, 575k, 650k, 750k.\n          FREQ_CFG pin needs to float or short to VDD25;\nPHs_0 & PHs_1 -- in degree, set phase angle related to SYNC signal. \n                             Certain combinations are restricted as in data sheet;\nFREQ_CFG pin needs to float or short to VDD25, to make the value be in effect;\nTon0_delay & Ton0_rise; Ton1_delay & Ton1_rise -- in sec, set delay and soft-start timers for \n                channel0 and channel1. Initialization time is not modeled;\nToff0_delay & Toff0_fall; Toff1_delay & Toff1_fall -- in sec, set delay and soft-off timers for \n                channel0 and channel1;\nVout_0 & Vout_1 -- in volt, set output voltages respectively;\nVout0_range & Vout1_range -- set maximum output range, with value 0 for 14V, value 1 for 7V;\nIlim0_range & Ilim1_range -- set maximum sensed peak current range,\n                   with value 0 for low 50mV, and 1 for high 75mV;\nOC_limit0 & OC_limit1 -- set ratio of peak current limit to the maximum value defined by Ilimit_range.\n                    It must be one of these values: 0.5, 0.572, 0.642, 0.714, 0.786, 0.858, 0.928, 1;\nMode_II -- sets light load operation mode: 0 for discontinuous, 2 for forced continuous;\nFault_response -- sets the response mode of the LTC3886 to occurring faults:\n                                 0 for ignore, 1 for latch up, 2 for hiccup after Retry_delay time;\nRetry_delay -- in sec, sets the timer before the LTC3886 turns on after a fault;\n                      gm0, gm1 -- in A/V, sets the transconductance of the error amplifier;\nRth0, Rth1 -- in ohm, sets the value of resistor in series with compensation \n                           capacitor on pin IthR0 (or IthR1).
