Version 4
SHEET 1 880 680
WIRE 16 16 -64 16
WIRE 64 16 16 16
WIRE 512 16 352 16
WIRE 624 16 512 16
WIRE -64 32 -64 16
WIRE 512 32 512 16
WIRE 624 32 624 16
WIRE 16 112 16 16
WIRE 64 112 16 112
WIRE 432 112 352 112
WIRE -64 128 -64 112
WIRE 432 128 432 112
WIRE 512 128 512 96
WIRE 624 128 624 112
WIRE 16 208 16 112
WIRE 64 208 16 208
WIRE 368 208 352 208
WIRE 432 224 432 208
WIRE 64 304 48 304
WIRE 368 304 352 304
WIRE 208 384 208 368
FLAG 432 224 0
FLAG 208 384 0
FLAG -64 128 0
FLAG 512 128 0
FLAG 624 128 0
FLAG -64 16 IN
FLAG 624 16 OUT
SYMBOL PowerProducts\\LTM4661 208 160 R0
SYMATTR InstName U1
SYMBOL res 416 112 R0
SYMATTR InstName R1
SYMATTR Value 31.6K
SYMBOL voltage -64 16 R0
SYMATTR InstName V1
SYMATTR Value 3.3
SYMBOL cap 496 32 R0
WINDOW 0 24 11 Left 2
WINDOW 3 35 37 Left 2
WINDOW 123 28 65 Left 2
SYMATTR InstName C2
SYMATTR Value 22µ
SYMATTR Value2 x2
SYMBOL res 608 16 R0
SYMATTR InstName R2
SYMATTR Value 2.5
TEXT 384 376 Left 2 !.tran 2m startup
