Version 4
SHEET 1 1740 1348
WIRE 1392 -704 -832 -704
WIRE -480 -656 -480 -672
WIRE -144 -608 -144 -624
WIRE 1200 -608 1200 -624
WIRE -32 -592 -32 -624
WIRE 416 -592 416 -624
WIRE -704 -560 -1056 -560
WIRE -688 -560 -704 -560
WIRE -592 -560 -608 -560
WIRE -480 -560 -480 -592
WIRE -480 -560 -592 -560
WIRE -352 -560 -368 -560
WIRE -256 -560 -288 -560
WIRE -1056 -544 -1056 -560
WIRE 992 -544 976 -544
WIRE 1088 -544 1056 -544
WIRE 1200 -512 1200 -544
WIRE 1392 -512 1392 -704
WIRE 1392 -512 1200 -512
WIRE -144 -496 -144 -544
WIRE -144 -496 -896 -496
WIRE 528 -496 -144 -496
WIRE 640 -496 528 -496
WIRE 752 -496 640 -496
WIRE -704 -480 -704 -560
WIRE -592 -480 -592 -560
WIRE -480 -480 -480 -560
WIRE -368 -480 -368 -560
WIRE -256 -480 -256 -560
WIRE -144 -480 -144 -496
WIRE -32 -480 -32 -528
WIRE 416 -480 416 -528
WIRE 528 -480 528 -496
WIRE 640 -480 640 -496
WIRE 752 -480 752 -496
WIRE 976 -480 976 -544
WIRE 1088 -480 1088 -544
WIRE 1200 -480 1200 -512
WIRE -1056 -448 -1056 -464
WIRE 1392 -416 1392 -512
WIRE 1392 -416 1264 -416
WIRE -832 -400 -832 -704
WIRE -768 -400 -832 -400
WIRE -1024 64 -1152 64
WIRE -800 64 -1024 64
WIRE -768 64 -800 64
WIRE 1296 64 1264 64
WIRE 1456 64 1296 64
WIRE 1568 64 1456 64
WIRE -1152 80 -1152 64
WIRE -1024 80 -1024 64
WIRE 1456 80 1456 64
WIRE 1568 80 1568 64
WIRE -800 160 -800 64
WIRE -768 160 -800 160
WIRE 1296 160 1296 64
WIRE 1296 160 1264 160
WIRE -1152 176 -1152 160
WIRE -1024 176 -1024 144
WIRE 1456 176 1456 144
WIRE 1568 176 1568 160
WIRE -768 256 -800 256
WIRE 1296 256 1264 256
WIRE -848 352 -864 352
WIRE -768 352 -784 352
WIRE 1280 352 1264 352
WIRE 1360 352 1344 352
WIRE -848 448 -864 448
WIRE -768 448 -784 448
WIRE 1280 448 1264 448
WIRE 1360 448 1344 448
WIRE 1312 720 -800 720
WIRE -800 736 -800 720
WIRE -768 736 -800 736
WIRE 1312 736 1312 720
WIRE 1312 736 1264 736
WIRE -592 912 -592 896
WIRE -144 912 -144 896
WIRE -32 912 -32 896
WIRE 192 912 192 896
WIRE 640 912 640 896
WIRE 752 912 752 896
WIRE 1200 912 1200 896
WIRE 976 928 976 896
WIRE -592 1008 -592 992
WIRE -144 1008 -144 992
WIRE -32 1008 -32 976
WIRE 192 1008 192 992
WIRE 640 1008 640 992
WIRE 752 1008 752 976
WIRE 416 1040 416 896
WIRE 976 1040 976 1008
WIRE 976 1040 416 1040
WIRE 1312 1040 1312 736
WIRE 1312 1040 976 1040
WIRE -896 1056 -896 -496
WIRE -576 1056 -896 1056
WIRE -480 1056 -480 896
WIRE -480 1056 -496 1056
WIRE -368 1056 -368 896
WIRE 80 1056 80 896
WIRE 80 1056 -368 1056
WIRE 304 1072 304 896
WIRE 336 1072 304 1072
WIRE 1392 1072 1392 -416
WIRE 1392 1072 416 1072
WIRE -480 1088 -480 1056
WIRE 304 1104 304 1072
WIRE -480 1184 -480 1168
WIRE 304 1200 304 1184
FLAG -1056 -448 0
FLAG -480 -672 0
FLAG -144 -624 0
FLAG -32 -624 0
FLAG -592 1008 0
FLAG -32 1008 0
FLAG -144 1008 0
FLAG 192 1008 0
FLAG 752 1008 0
FLAG 640 1008 0
FLAG 1200 912 0
FLAG 1200 -624 0
FLAG 416 -624 0
FLAG -480 1184 0
FLAG 304 1200 0
FLAG -800 256 0
FLAG -864 352 0
FLAG -864 448 0
FLAG -1024 176 0
FLAG -1152 176 0
FLAG 1360 448 0
FLAG 1360 352 0
FLAG 1456 176 0
FLAG 1568 176 0
FLAG 1296 256 0
FLAG -1056 -560 IN
FLAG -1152 64 OUT1
FLAG 1568 64 OUT0
SYMBOL PowerProducts\\LTM4664 240 208 R0
WINDOW 39 24 1074 Center 2
WINDOW 40 20 1121 Center 2
SYMATTR InstName U1
SYMBOL voltage -1056 -560 R0
SYMATTR InstName V1
SYMATTR Value 48
SYMBOL res -592 -576 R90
WINDOW 0 0 56 VBottom 2
WINDOW 3 32 56 VTop 2
SYMATTR InstName R1
SYMATTR Value 10m
SYMBOL cap -496 -592 M180
WINDOW 0 24 56 Left 2
WINDOW 3 24 8 Left 2
WINDOW 123 24 -13 Left 2
SYMATTR InstName C1
SYMATTR Value 2.2µ
SYMATTR Value2 x4
SYMBOL cap -288 -576 R90
WINDOW 0 0 32 VBottom 2
WINDOW 3 30 32 VTop 2
WINDOW 123 53 32 VTop 2
SYMATTR InstName C2
SYMATTR Value 10µ
SYMATTR Value2 x6
SYMBOL cap -160 -608 R0
WINDOW 123 24 77 Left 2
SYMATTR Value2 x6
SYMATTR InstName C3
SYMATTR Value 10µ
SYMBOL cap -48 -592 R0
SYMATTR InstName C4
SYMATTR Value 4.7µ
SYMBOL res -608 896 R0
SYMATTR InstName R2
SYMATTR Value 100K
SYMBOL cap -48 912 R0
SYMATTR InstName C5
SYMATTR Value .47µ
SYMBOL res -160 896 R0
SYMATTR InstName R3
SYMATTR Value 40.2K
SYMBOL res 176 896 R0
SYMATTR InstName R4
SYMATTR Value 100K
SYMBOL cap 736 912 R0
SYMATTR InstName C6
SYMATTR Value .1µ
SYMBOL res 624 896 R0
SYMATTR InstName R5
SYMATTR Value 75K
SYMBOL cap 1056 -560 R90
WINDOW 0 0 32 VBottom 2
WINDOW 3 30 32 VTop 2
WINDOW 123 53 32 VTop 2
SYMATTR InstName C7
SYMATTR Value 10µ
SYMBOL cap 1184 -608 R0
WINDOW 123 24 77 Left 2
SYMATTR Value2 x3
SYMATTR InstName C8
SYMATTR Value 10µ
SYMBOL cap 400 -592 R0
SYMATTR InstName C9
SYMATTR Value 4.7µ
SYMBOL res -496 1072 R0
SYMATTR InstName R6
SYMATTR Value 8.87K
SYMBOL res -480 1040 R90
WINDOW 0 0 56 VBottom 2
WINDOW 3 32 56 VTop 2
SYMATTR InstName R7
SYMATTR Value 130K
SYMBOL res 288 1088 R0
SYMATTR InstName R8
SYMATTR Value 9.53K
SYMBOL res 432 1056 R90
WINDOW 0 0 56 VBottom 2
WINDOW 3 32 56 VTop 2
SYMATTR InstName R9
SYMATTR Value 64.9K
SYMBOL res 960 912 R0
SYMATTR InstName R10
SYMATTR Value 10K
SYMBOL cap -784 336 R90
WINDOW 0 0 32 VBottom 2
WINDOW 3 32 32 VTop 2
SYMATTR InstName C10
SYMATTR Value 100p
SYMBOL cap -784 432 R90
WINDOW 0 0 32 VBottom 2
WINDOW 3 32 32 VTop 2
SYMATTR InstName C11
SYMATTR Value 1n
SYMBOL cap -1040 80 R0
WINDOW 123 25 63 Left 2
WINDOW 3 40 41 Left 2
SYMATTR Value2 x5
SYMATTR InstName C12
SYMATTR Value 330µ
SYMBOL res -1168 64 R0
SYMATTR InstName R11
SYMATTR Value 40m
SYMBOL cap 1344 432 R90
WINDOW 0 0 32 VBottom 2
WINDOW 3 32 32 VTop 2
SYMATTR InstName C13
SYMATTR Value 1n
SYMBOL cap 1344 336 R90
WINDOW 0 0 32 VBottom 2
WINDOW 3 32 32 VTop 2
SYMATTR InstName C14
SYMATTR Value 100p
SYMBOL cap 1440 80 R0
WINDOW 123 29 58 Left 2
WINDOW 3 41 36 Left 2
SYMATTR Value2 x5
SYMATTR InstName C15
SYMATTR Value 330µ
SYMBOL res 1552 64 R0
SYMATTR InstName R12
SYMATTR Value 40m
TEXT 1328 1096 Left 2 !.tran 121m startup
