Version 4
SHEET 1 1156 680
WIRE -144 -128 -1040 -128
WIRE -192 -112 -928 -112
WIRE -240 -96 -816 -96
WIRE -816 -80 -816 -96
WIRE -240 -80 -240 -96
WIRE -192 -80 -192 -112
WIRE -144 -80 -144 -128
WIRE -96 -80 -96 -96
WIRE 240 -64 240 -80
WIRE -928 -16 -928 -112
WIRE -816 16 -816 0
WIRE -272 16 -528 16
WIRE 16 16 -16 16
WIRE -528 32 -528 16
WIRE 240 32 240 16
WIRE -1040 48 -1040 -128
WIRE -928 80 -928 64
WIRE -528 128 -528 112
WIRE -208 128 -208 112
WIRE -96 128 -96 112
WIRE -1040 144 -1040 128
FLAG 240 32 0
FLAG -528 128 0
FLAG 240 -80 +V
FLAG -96 -96 +V
FLAG -208 192 0
FLAG -96 128 0
FLAG -816 16 0
FLAG -928 80 0
FLAG -1040 144 0
FLAG 16 16 OUT
SYMBOL voltage 240 -80 R0
WINDOW 3 27 93 Left 2
SYMATTR Value +5
SYMATTR InstName V2
SYMBOL voltage -528 16 R0
WINDOW 0 28 27 Left 2
WINDOW 3 25 94 Left 2
SYMATTR InstName V3
SYMATTR Value SINE(2.5 10m 1K)
SYMBOL cap -224 192 M180
WINDOW 0 36 51 Left 2
WINDOW 3 34 17 Left 2
SYMATTR InstName C1
SYMATTR Value 1µ
SYMBOL voltage -816 -96 R0
WINDOW 0 28 27 Left 2
WINDOW 3 28 87 Left 2
SYMATTR InstName V4
SYMATTR Value PULSE(0 5 0 1u 1u 5m 10m)
SYMBOL voltage -928 -32 R0
WINDOW 0 28 27 Left 2
WINDOW 3 19 96 Left 2
SYMATTR InstName V5
SYMATTR Value PULSE(0 5 0 1u 1u 10m 20m)
SYMBOL voltage -1040 32 R0
WINDOW 0 28 27 Left 2
WINDOW 3 25 94 Left 2
SYMATTR InstName V6
SYMATTR Value PULSE(0 5 0 1u 1u 20m 40m)
SYMBOL opamps\\LTC6910-2 -160 16 R0
SYMATTR InstName U1
TEXT -24 256 Left 2 !.tran 40m
