Version 4
SHEET 1 6140 3124
WIRE 592 -256 496 -256
WIRE 624 -256 592 -256
WIRE 1040 -256 1008 -256
WIRE 496 -240 496 -256
WIRE 592 -176 592 -256
WIRE 624 -176 592 -176
WIRE 1040 -176 1040 -192
WIRE 1040 -176 1008 -176
WIRE 1104 -176 1040 -176
WIRE 1216 -176 1184 -176
WIRE 1296 -176 1216 -176
WIRE 1296 -160 1296 -176
WIRE 496 -144 496 -160
WIRE 624 -96 608 -96
WIRE 1040 -96 1008 -96
WIRE 1216 -96 1216 -176
WIRE 1216 -96 1040 -96
WIRE 1216 -80 1216 -96
WIRE 1296 -64 1296 -80
WIRE 624 -16 608 -16
WIRE 1040 -16 1040 -96
WIRE 1040 -16 1008 -16
WIRE 1216 0 1216 -16
WIRE 1072 64 1008 64
WIRE 1072 144 1072 64
WIRE 1072 144 1008 144
WIRE 1072 160 1072 144
WIRE 1072 240 1072 224
WIRE 624 304 608 304
WIRE 1024 304 1008 304
WIRE 752 400 752 384
WIRE 880 400 880 384
FLAG 496 -144 0
FLAG 496 -256 IN
FLAG 1296 -176 OUT
FLAG 608 -96 0
FLAG 608 304 0
FLAG 1296 -64 0
FLAG 1216 0 0
FLAG 752 400 0
FLAG 880 400 0
FLAG 1024 304 0
FLAG 1072 240 0
FLAG 608 -16 0
SYMBOL ind 1088 -160 R270
WINDOW 0 32 56 VTop 2
WINDOW 3 5 56 VBottom 2
SYMATTR InstName L1
SYMATTR Value 47µ
SYMATTR SpiceLine Rser=5m
SYMBOL cap 1200 -80 R0
SYMATTR Value 47µ
SYMATTR SpiceLine Rser=15m
SYMATTR InstName C1
SYMBOL voltage 496 -256 R0
SYMATTR InstName V1
SYMATTR Value 50
SYMBOL res 1280 -176 R0
SYMATTR InstName Rload
SYMATTR Value 10
SYMBOL cap 1056 160 R0
SYMATTR Value 1µ
SYMATTR SpiceLine Rser=20m
SYMATTR Value2 IC=0
SYMATTR InstName C6
SYMBOL cap 1024 -256 R0
SYMATTR Value 0.1µ
SYMATTR SpiceLine Rser=15m
SYMATTR InstName C2
SYMBOL LT7101 816 48 R0
SYMATTR InstName U1
TEXT 1152 352 Left 2 !.tran 1.8m startup
