Version 4
SHEET 1 880 788
WIRE -144 -288 -224 -288
WIRE 176 -288 -144 -288
WIRE 320 -288 176 -288
WIRE 480 -288 400 -288
WIRE -144 -272 -144 -288
WIRE -224 -256 -224 -288
WIRE 80 -256 -48 -256
WIRE 80 -224 80 -256
WIRE 176 -224 176 -288
WIRE -144 -176 -144 -192
WIRE -48 -176 -48 -256
WIRE -48 -176 -144 -176
WIRE -144 -160 -144 -176
WIRE 16 -160 -48 -160
WIRE 480 -160 480 -288
WIRE 480 -160 432 -160
WIRE -224 -144 -224 -176
WIRE -144 -64 -144 -80
WIRE -48 -64 -48 -160
WIRE -48 -64 -144 -64
WIRE 16 -64 0 -64
WIRE 480 -64 480 -160
WIRE 480 -64 432 -64
WIRE -144 32 -144 16
WIRE 0 32 0 -64
WIRE 0 32 -64 32
WIRE 16 32 0 32
WIRE 480 32 432 32
WIRE 480 64 480 32
WIRE -64 128 -64 112
WIRE -64 128 -80 128
WIRE 16 128 -64 128
WIRE 480 160 480 128
WIRE 0 224 0 32
WIRE 16 224 0 224
WIRE 576 224 432 224
WIRE 576 240 576 224
WIRE 480 320 432 320
WIRE 576 352 576 304
WIRE 16 416 0 416
WIRE 480 416 480 400
WIRE 480 416 432 416
WIRE 480 432 480 416
WIRE 16 512 0 512
WIRE 448 512 432 512
WIRE 480 528 480 512
WIRE 64 592 64 576
WIRE 144 592 144 576
WIRE 224 592 224 576
WIRE 304 592 304 576
WIRE 384 592 384 576
WIRE 224 672 224 656
WIRE 64 688 64 656
WIRE 144 688 144 656
WIRE 304 688 304 672
WIRE 384 688 384 656
WIRE 224 768 224 752
FLAG -224 -144 0
FLAG 480 160 0
FLAG 576 352 0
FLAG 448 512 0
FLAG 480 528 0
FLAG -144 32 0
FLAG -160 128 0
FLAG 224 768 0
FLAG 304 688 0
FLAG 384 688 0
FLAG 144 688 0
FLAG 64 688 0
FLAG 0 416 0
FLAG 0 512 0
FLAG -224 -288 IN
FLAG 576 224 OUT
SYMBOL PowerProducts\\LTM8005 224 176 R0
SYMATTR InstName U1
SYMATTR Description 110V LED Controller with Spread Spectrum Frequency Modulation
SYMBOL voltage -224 -272 R0
SYMATTR InstName V1
SYMATTR Value 12
SYMBOL ind 304 -272 R270
WINDOW 0 32 56 VTop 2
WINDOW 3 5 56 VBottom 2
SYMATTR InstName L1
SYMATTR Value 8.2µ
SYMBOL cap 464 64 R0
WINDOW 3 37 35 Left 2
WINDOW 123 25 60 Left 2
SYMATTR InstName C1
SYMATTR Value 4.7µ
SYMATTR Value2 x2
SYMBOL LED 560 240 R0
WINDOW 0 28 3 Left 2
WINDOW 123 22 96 Left 2
SYMATTR InstName D1
SYMATTR Value LXHL-BW02
SYMATTR Value2 N=10
SYMBOL res 464 304 R0
SYMATTR InstName R1
SYMATTR Value 402K
SYMBOL res 464 416 R0
SYMATTR InstName R2
SYMATTR Value 12.4K
SYMBOL res -160 -288 R0
SYMATTR InstName R3
SYMATTR Value 1Meg
SYMBOL res -160 -176 R0
SYMATTR InstName R4
SYMATTR Value 93.1K
SYMBOL res -160 -80 R0
SYMATTR InstName R5
SYMATTR Value 19.1K
SYMBOL res -64 112 R90
WINDOW 0 0 56 VBottom 2
WINDOW 3 32 56 VTop 2
SYMATTR InstName R6
SYMATTR Value 20K
SYMBOL res -80 16 R0
WINDOW 0 35 48 Left 2
WINDOW 3 21 81 Left 2
SYMATTR InstName R7
SYMATTR Value 100K
SYMBOL cap 208 592 R0
WINDOW 39 24 77 Left 2
SYMATTR InstName C2
SYMATTR Value 10n
SYMBOL res 288 576 R0
WINDOW 3 24 88 Left 2
SYMATTR Value 23.2K
SYMATTR InstName R8
SYMBOL cap 368 592 R0
SYMATTR InstName C3
SYMATTR Value 100n
SYMBOL res 208 656 R0
SYMATTR InstName R9
SYMATTR Value 4.8K
SYMBOL cap 128 592 R0
SYMATTR InstName C4
SYMATTR Value 6.8n
SYMBOL cap 48 592 R0
SYMATTR InstName C5
SYMATTR Value .1µ
TEXT 488 688 Left 2 !.tran 2.5m startup
