Version 4
SHEET 1 880 680
WIRE 192 -64 -16 -64
WIRE 192 -32 192 -64
WIRE -16 32 -16 -64
WIRE 96 32 -16 32
WIRE 480 32 384 32
WIRE 592 32 480 32
WIRE 480 48 480 32
WIRE 592 48 592 32
WIRE -16 64 -16 32
WIRE 416 128 384 128
WIRE 480 144 480 112
WIRE 592 144 592 128
WIRE -16 160 -16 144
WIRE 0 224 -16 224
WIRE 96 224 80 224
WIRE 416 224 416 128
WIRE 416 224 384 224
WIRE 16 320 -16 320
WIRE 96 320 80 320
WIRE 400 320 384 320
WIRE 496 320 480 320
WIRE 192 400 192 384
FLAG -16 160 0
FLAG -16 224 0
FLAG -16 320 0
FLAG 192 400 0
FLAG 496 320 0
FLAG 480 144 0
FLAG 592 144 0
FLAG -16 -64 IN
FLAG 592 32 OUT
SYMBOL PowerProducts\\LTM8071 240 176 R0
SYMATTR InstName U1
SYMBOL voltage -16 48 R0
SYMATTR InstName V1
SYMATTR Value 22
SYMBOL res 96 208 R90
WINDOW 0 0 56 VBottom 2
WINDOW 3 32 56 VTop 2
SYMATTR InstName R1
SYMATTR Value 56.2K
SYMBOL cap 80 304 R90
WINDOW 0 0 32 VBottom 2
WINDOW 3 32 32 VTop 2
SYMATTR InstName C1
SYMATTR Value 1n
SYMBOL res 496 304 R90
WINDOW 0 0 56 VBottom 2
WINDOW 3 32 56 VTop 2
SYMATTR InstName R2
SYMATTR Value 102K
SYMBOL cap 464 48 R0
SYMATTR InstName C2
SYMATTR Value 100µ
SYMBOL res 576 32 R0
SYMATTR InstName R3
SYMATTR Value 1
TEXT 448 424 Left 2 !.tran 10m startup
