Version 4
SHEET 1 2084 916
WIRE 256 -272 224 -272
WIRE 368 -272 336 -272
WIRE 224 -208 224 -272
WIRE 368 -208 368 -272
WIRE -304 -128 -656 -128
WIRE -144 -128 -304 -128
WIRE 0 -128 -144 -128
WIRE 656 -128 592 -128
WIRE 752 -128 656 -128
WIRE 816 -128 752 -128
WIRE 960 -128 896 -128
WIRE 1056 -128 960 -128
WIRE 1152 -128 1056 -128
WIRE 1248 -128 1152 -128
WIRE 656 -112 656 -128
WIRE 1152 -112 1152 -128
WIRE 1248 -112 1248 -128
WIRE -656 -96 -656 -128
WIRE -304 -80 -304 -128
WIRE -144 -80 -144 -128
WIRE 656 -32 656 -48
WIRE 1152 -32 1152 -48
WIRE 1248 -16 1248 -32
WIRE 752 0 752 -128
WIRE 752 0 592 0
WIRE -656 32 -656 -16
WIRE -304 32 -304 -16
WIRE -144 32 -144 0
WIRE 0 32 -144 32
WIRE 1056 32 1056 -128
WIRE -144 48 -144 32
WIRE 960 80 960 -128
WIRE 960 80 592 80
WIRE -144 144 -144 128
WIRE 1056 160 1056 112
WIRE 1056 160 592 160
WIRE 1056 192 1056 160
WIRE 0 256 -144 256
WIRE 1056 304 1056 272
WIRE -144 336 -144 256
WIRE -112 336 -144 336
WIRE 0 336 -32 336
WIRE 624 336 592 336
WIRE 0 416 -64 416
WIRE 656 416 592 416
WIRE 768 416 736 416
WIRE 864 416 832 416
WIRE -64 496 -64 416
WIRE 0 496 -64 496
WIRE 720 496 592 496
WIRE 832 496 784 496
WIRE -144 576 -144 336
WIRE 0 576 -144 576
WIRE 640 576 592 576
WIRE 752 576 720 576
WIRE -144 656 -144 576
WIRE 0 656 -144 656
WIRE 624 656 592 656
WIRE 656 736 592 736
WIRE 752 736 720 736
WIRE 304 848 304 816
FLAG 304 848 0
FLAG -144 144 0
FLAG -304 32 0
FLAG -656 32 0
FLAG 1056 304 0
FLAG 656 -32 0
FLAG 864 416 0
FLAG 832 496 0
FLAG 752 576 0
FLAG 624 656 0
FLAG -656 -128 IN
FLAG 1248 -128 OUT
FLAG 1152 -32 0
FLAG 1248 -16 0
FLAG 752 736 0
FLAG 624 336 0
SYMBOL ind 240 -256 R270
WINDOW 0 32 56 VTop 2
WINDOW 3 5 56 VBottom 2
SYMATTR InstName L1
SYMATTR Value 2.2µ
SYMBOL res -16 320 R90
WINDOW 0 0 56 VBottom 2
WINDOW 3 32 56 VTop 2
SYMATTR InstName R1
SYMATTR Value 100k
SYMBOL res -160 -96 R0
SYMATTR InstName R2
SYMATTR Value 499k
SYMBOL res -160 32 R0
SYMATTR InstName R3
SYMATTR Value 115K
SYMBOL cap -320 -80 R0
SYMATTR InstName C5
SYMATTR Value 10µ
SYMBOL voltage -656 -112 R0
WINDOW 123 0 0 Left 0
WINDOW 39 0 0 Left 0
SYMATTR InstName V1
SYMATTR Value PWL(0 0 100u 12 1m 12)
SYMBOL res 1040 16 R0
SYMATTR InstName R6
SYMATTR Value 110k
SYMBOL res 1040 176 R0
SYMATTR InstName R7
SYMATTR Value 10k
SYMBOL cap 640 -112 R0
SYMATTR InstName C6
SYMATTR Value 4.7µ
SYMBOL res 800 -144 M90
WINDOW 0 0 56 VBottom 2
WINDOW 3 32 56 VTop 2
SYMATTR InstName R8
SYMATTR Value 30m
SYMBOL res 752 400 R90
WINDOW 0 0 56 VBottom 2
WINDOW 3 32 56 VTop 2
SYMATTR InstName R9
SYMATTR Value 3.9k
SYMBOL cap 832 400 R90
WINDOW 0 0 32 VBottom 2
WINDOW 3 32 32 VTop 2
SYMATTR InstName C7
SYMATTR Value 3.3n
SYMBOL cap 784 480 R90
WINDOW 0 0 32 VBottom 2
WINDOW 3 32 32 VTop 2
SYMATTR InstName C8
SYMATTR Value 10n
SYMBOL res 736 560 R90
WINDOW 0 0 56 VBottom 2
WINDOW 3 32 56 VTop 2
SYMATTR InstName R10
SYMATTR Value 14.3k
SYMBOL cap 1136 -112 R0
SYMATTR InstName C10
SYMATTR Value 47µ
SYMBOL res 1232 -128 R0
SYMATTR InstName Rload
SYMATTR Value 6
SYMBOL LT8350S 304 288 R0
SYMATTR InstName U1
SYMBOL cap 720 720 R90
WINDOW 0 0 32 VBottom 2
WINDOW 3 32 32 VTop 2
SYMATTR InstName C1
SYMATTR Value 15p
TEXT 464 864 Left 2 !.tran 5m startup
