Version 4
SHEET 1 3336 1456
WIRE 2288 848 2000 848
WIRE 2384 848 2288 848
WIRE 2384 864 2384 848
WIRE 2000 896 2000 848
WIRE 1856 944 1632 944
WIRE 1632 960 1632 944
WIRE 2384 960 2384 944
WIRE 1856 976 1856 944
WIRE 1888 976 1856 976
WIRE 2320 1008 2224 1008
WIRE 1888 1040 1856 1040
WIRE 1632 1072 1632 1040
WIRE 1856 1072 1856 1040
WIRE 1856 1072 1632 1072
WIRE 2288 1088 2288 848
WIRE 2288 1088 2224 1088
WIRE 2240 1216 2224 1216
WIRE 2000 1248 2000 1232
FLAG 2320 1008 OUT
FLAG 2384 960 0
FLAG 2384 848 IN
FLAG 2240 1216 0
FLAG 2000 1248 0
SYMBOL VOLTAGE 2384 848 R0
SYMATTR InstName V1
SYMATTR Value 5
SYMBOL voltage 1632 944 R0
WINDOW 123 0 0 Left 0
WINDOW 39 0 0 Left 0
SYMATTR InstName V2
SYMATTR Value SINE(0 10m 1K)
SYMBOL opamps\\AD8205 2048 1072 R0
SYMATTR InstName U1
TEXT 2312 1176 Left 2 !.tran 5m
