Version 4
SHEET 1 1240 700
WIRE 416 -1232 288 -1232
WIRE 512 -1232 496 -1232
WIRE 544 -1232 512 -1232
WIRE 640 -1232 624 -1232
WIRE 288 -1216 288 -1232
WIRE 560 -1152 560 -1168
WIRE 560 -1152 528 -1152
WIRE 560 -1136 560 -1152
WIRE 288 -1120 288 -1136
WIRE 512 -1120 512 -1232
WIRE 544 -1120 512 -1120
WIRE 160 -1104 160 -1120
WIRE 640 -1104 640 -1232
WIRE 640 -1104 608 -1104
WIRE 704 -1104 640 -1104
WIRE 544 -1088 432 -1088
WIRE 432 -1072 432 -1088
WIRE 528 -1056 528 -1152
WIRE 592 -1056 592 -1072
WIRE 592 -1056 528 -1056
WIRE 560 -1040 560 -1072
WIRE 160 -1008 160 -1024
WIRE 432 -976 432 -992
FLAG 160 -1120 +V
FLAG 160 -1008 0
FLAG 432 -976 0
FLAG 704 -1104 OUT
FLAG 560 -1040 0
FLAG 432 -1088 IN
FLAG 560 -1168 +V
FLAG 288 -1120 0
SYMBOL voltage 160 -1120 R0
SYMATTR InstName V1
SYMATTR Value 5
SYMBOL voltage 432 -1088 R0
WINDOW 123 24 146 Left 2
WINDOW 39 24 125 Left 2
SYMATTR InstName V2
SYMATTR Value SINE(2.5 0.5 250K)
SYMBOL Opamps\\ADA4807 576 -1104 R0
SYMATTR InstName U1
SYMBOL res 512 -1248 R90
WINDOW 0 0 56 VBottom 2
WINDOW 3 32 56 VTop 2
SYMATTR InstName R1
SYMATTR Value 1K
SYMBOL res 640 -1248 R90
WINDOW 0 0 56 VBottom 2
WINDOW 3 32 56 VTop 2
SYMATTR InstName R2
SYMATTR Value 1K
SYMBOL voltage 288 -1232 R0
WINDOW 123 0 0 Left 2
WINDOW 39 0 0 Left 2
SYMATTR InstName Vref
SYMATTR Value 2.5
TEXT 728 -976 Left 2 !.tran 50u
