Version 4
SHEET 1 896 680
WIRE -64 -144 -96 -144
WIRE 48 -144 16 -144
WIRE 352 -144 48 -144
WIRE 544 -144 432 -144
WIRE 144 -48 144 -80
WIRE 208 -48 144 -48
WIRE -160 -32 -160 -80
WIRE 208 -16 208 -48
WIRE 48 64 48 -144
WIRE 112 64 48 64
WIRE 416 96 384 96
WIRE 544 96 544 -144
WIRE 544 96 480 96
WIRE 576 96 544 96
WIRE -160 128 -160 48
WIRE 112 128 -160 128
WIRE -336 160 -336 128
WIRE -160 176 -160 128
WIRE 208 240 208 208
WIRE -336 288 -336 240
WIRE -160 288 -160 256
WIRE 144 288 144 240
FLAG -336 288 0
FLAG 144 -80 +V
FLAG -336 128 +V
FLAG 208 240 0
FLAG 576 96 OUT
FLAG 144 288 0
FLAG -160 288 0
FLAG -160 -80 0
FLAG -96 -144 0
SYMBOL voltage -336 144 R0
SYMATTR InstName V1
SYMATTR Value 28
SYMBOL ADA4523-1 272 96 R0
SYMATTR InstName U1
SYMBOL res 448 -160 R90
WINDOW 0 0 56 VBottom 2
WINDOW 3 32 56 VTop 2
SYMATTR InstName R1
SYMATTR Value 1K
SYMBOL res 32 -160 R90
WINDOW 0 0 56 VBottom 2
WINDOW 3 32 56 VTop 2
SYMATTR InstName R2
SYMATTR Value 10
SYMBOL diode 416 112 R270
WINDOW 0 32 32 VTop 2
WINDOW 3 0 32 VBottom 2
SYMATTR InstName D1
SYMATTR Value 1N4148
SYMBOL res -176 160 R0
SYMATTR InstName Rsense
SYMATTR Value 1K
SYMBOL current -160 -32 R0
SYMATTR InstName Isense
SYMATTR Value 0
TEXT 296 248 Left 2 ;V(OUT) = 101*Rsense*Isense
TEXT 320 296 Left 2 !.dc Isense 0 1u 10n
