Version 4
SHEET 1 880 680
WIRE -32 32 -160 32
WIRE 80 32 -32 32
WIRE 464 32 400 32
WIRE 560 32 464 32
WIRE -160 48 -160 32
WIRE 464 48 464 32
WIRE 560 48 560 32
WIRE -32 128 -32 32
WIRE -16 128 -32 128
WIRE 80 128 64 128
WIRE -160 144 -160 128
WIRE 464 144 464 112
WIRE 560 144 560 128
WIRE 0 224 -16 224
WIRE 80 224 64 224
WIRE 464 224 400 224
WIRE 560 224 464 224
WIRE 464 240 464 224
WIRE 560 240 560 224
WIRE 560 320 560 304
WIRE 0 336 -16 336
WIRE 80 336 64 336
WIRE 464 336 464 320
WIRE 464 336 400 336
WIRE 464 352 464 336
WIRE 240 416 240 400
WIRE 464 448 464 432
FLAG 240 416 0
FLAG 560 320 0
FLAG 464 144 0
FLAG -16 336 0
FLAG -16 224 0
FLAG -160 144 0
FLAG 560 144 0
FLAG 464 448 0
FLAG -160 32 IN
FLAG 560 32 OUT
SYMBOL voltage -160 32 R0
SYMATTR InstName V1
SYMATTR Value 3.4
SYMBOL cap 448 48 R0
SYMATTR InstName C3
SYMATTR Value 10µ
SYMBOL res 448 224 R0
SYMATTR InstName R1
SYMATTR Value 110k
SYMBOL res 448 336 R0
SYMATTR InstName R2
SYMATTR Value 100K
SYMBOL cap 544 240 R0
WINDOW 0 36 14 Left 2
WINDOW 3 36 50 Left 2
SYMATTR InstName C4
SYMATTR Value 1µ
SYMBOL cap 64 320 R90
WINDOW 0 0 32 VBottom 2
WINDOW 3 32 32 VTop 2
SYMATTR InstName C1
SYMATTR Value 1µ
SYMBOL cap 64 208 R90
WINDOW 0 0 32 VBottom 2
WINDOW 3 32 32 VTop 2
SYMATTR InstName C2
SYMATTR Value 1µ
SYMBOL res -32 144 R270
WINDOW 0 32 56 VTop 2
WINDOW 3 0 56 VBottom 2
SYMATTR InstName R3
SYMATTR Value 100K
SYMBOL res 544 32 R0
SYMATTR InstName R5
SYMATTR Value 25
SYMBOL ADM7155-03 240 176 R0
SYMATTR InstName U1
TEXT 552 448 Left 2 !.tran 5m startup
