Version 4
SHEET 1 1076 680
WIRE 32 -112 -128 -112
WIRE 176 -112 32 -112
WIRE 272 -112 176 -112
WIRE -128 -96 -128 -112
WIRE 176 -96 176 -112
WIRE 272 -96 272 -112
WIRE 32 -16 32 -112
WIRE 64 -16 32 -16
WIRE 416 -16 384 -16
WIRE 576 -16 496 -16
WIRE -128 0 -128 -16
WIRE -16 64 -32 64
WIRE 64 64 48 64
WIRE 416 64 384 64
WIRE -80 144 -96 144
WIRE 64 144 0 144
WIRE 416 144 416 128
WIRE 416 144 384 144
WIRE 464 144 416 144
WIRE 576 144 576 -16
WIRE 576 144 544 144
WIRE 688 144 576 144
WIRE 800 144 688 144
WIRE 688 160 688 144
WIRE 800 160 800 144
WIRE 576 176 576 144
WIRE -32 224 -48 224
WIRE 64 224 48 224
WIRE 688 256 688 224
WIRE 800 256 800 240
WIRE -240 304 -288 304
WIRE -112 304 -160 304
WIRE 64 304 -112 304
WIRE 576 304 576 256
WIRE 576 304 384 304
WIRE -288 320 -288 304
WIRE -112 320 -112 304
WIRE 576 320 576 304
WIRE -16 384 -32 384
WIRE 64 384 48 384
WIRE 400 384 384 384
WIRE 496 384 480 384
WIRE -288 400 -288 384
WIRE -112 400 -112 384
WIRE 576 416 576 400
WIRE 176 464 176 448
WIRE 272 464 272 448
FLAG -32 384 0
FLAG 272 464 0
FLAG 576 416 0
FLAG 496 384 0
FLAG -288 400 0
FLAG -128 0 0
FLAG 688 256 0
FLAG 800 256 0
FLAG 800 144 OUT
FLAG -128 -112 IN
FLAG -32 64 0
FLAG -96 144 0
FLAG -112 400 0
FLAG -48 224 0
FLAG 176 464 0
SYMBOL cap 48 368 R90
WINDOW 0 0 32 VBottom 2
WINDOW 3 32 32 VTop 2
SYMATTR InstName C1
SYMATTR Value 2n
SYMBOL ind 448 160 R270
WINDOW 0 32 56 VTop 2
WINDOW 3 5 56 VBottom 2
SYMATTR InstName L1
SYMATTR Value 1µ
SYMATTR SpiceLine Rser=2m
SYMBOL res 560 160 R0
SYMATTR InstName R1
SYMATTR Value 20K
SYMBOL res 560 304 R0
SYMATTR InstName R2
SYMATTR Value 10K
SYMBOL cap 400 64 R0
SYMATTR InstName C2
SYMATTR Value .1µ
SYMBOL cap 672 160 R0
WINDOW 40 24 74 Left 2
SYMATTR Value 305µ
SYMATTR InstName C3
SYMATTR SpiceLine Rser=2m
SYMBOL res 384 400 R270
WINDOW 0 32 56 VTop 2
WINDOW 3 0 56 VBottom 2
SYMATTR InstName R3
SYMATTR Value 121K
SYMBOL cap -304 320 R0
SYMATTR InstName C4
SYMATTR Value 1.5n
SYMBOL res -144 288 R90
WINDOW 0 0 56 VBottom 2
WINDOW 3 32 56 VTop 2
SYMATTR InstName R4
SYMATTR Value 27K
SYMBOL voltage -128 -112 R0
WINDOW 123 0 0 Left 2
WINDOW 39 0 0 Left 2
SYMATTR InstName V1
SYMATTR Value 12
SYMBOL res 512 -32 R90
WINDOW 0 0 56 VBottom 2
WINDOW 3 32 56 VTop 2
SYMATTR InstName R5
SYMATTR Value 100K
SYMBOL cap 48 48 R90
WINDOW 0 0 32 VBottom 2
WINDOW 3 32 32 VTop 2
SYMATTR InstName C5
SYMATTR Value 1µ
SYMBOL cap -128 320 R0
SYMATTR InstName C6
SYMATTR Value 22p
SYMBOL res 16 128 R90
WINDOW 0 0 56 VBottom 2
WINDOW 3 32 56 VTop 2
SYMATTR InstName R6
SYMATTR Value 150K
SYMBOL res 784 144 R0
SYMATTR InstName Rload
SYMATTR Value .18
SYMBOL ADP2389 224 176 R0
SYMATTR InstName U1
SYMBOL res 64 208 R90
WINDOW 0 0 56 VBottom 2
WINDOW 3 32 56 VTop 2
SYMATTR InstName R7
SYMATTR Value 59K
TEXT 664 424 Left 2 !.tran 1m startup
