Version 4
SHEET 1 948 692
WIRE 128 96 16 96
WIRE 160 96 128 96
WIRE 464 96 384 96
WIRE 640 96 544 96
WIRE 16 112 16 96
WIRE 128 176 128 96
WIRE 160 176 128 176
WIRE 416 176 384 176
WIRE 544 176 496 176
WIRE 640 176 640 96
WIRE 640 176 544 176
WIRE 736 176 640 176
WIRE 736 192 736 176
WIRE 16 208 16 192
WIRE 128 256 128 176
WIRE 160 256 128 256
WIRE 544 256 544 240
WIRE 544 256 384 256
WIRE 544 272 544 256
WIRE 736 288 736 272
WIRE 128 336 128 256
WIRE 160 336 128 336
WIRE 640 336 640 176
WIRE 640 336 384 336
FLAG 16 208 0
FLAG 16 96 IN
FLAG 544 272 0
FLAG 736 176 OUT
FLAG 736 288 0
SYMBOL VOLTAGE 16 96 R0
SYMATTR InstName V1
SYMATTR Value 12
SYMBOL ind 400 192 R270
WINDOW 0 32 56 VTop 2
WINDOW 3 5 56 VBottom 2
SYMATTR InstName L1
SYMATTR Value 10µ
SYMATTR SpiceLine Ipk=1.84 Rser=0.056 Rpar=942 Cpar=0 mfg="Coilcraft" pn="MSS6132-103"
SYMBOL cap 528 176 R0
WINDOW 0 29 15 Left 2
SYMATTR InstName C1
SYMATTR Value 10µ
SYMBOL res 560 80 R90
WINDOW 0 0 56 VBottom 2
WINDOW 3 32 56 VTop 2
SYMATTR InstName R1
SYMATTR Value 10K
SYMBOL ADP2370-1.2 272 208 R0
SYMATTR InstName U1
SYMBOL res 720 176 R0
SYMATTR InstName Rload
SYMATTR Value 10
TEXT 488 392 Left 2 !.tran 500u startup
