Version 4
SHEET 1 1076 680
WIRE 32 -96 -144 -96
WIRE 176 -96 32 -96
WIRE 272 -96 176 -96
WIRE -144 -80 -144 -96
WIRE 176 -80 176 -96
WIRE 272 -80 272 -96
WIRE 32 -16 32 -96
WIRE 64 -16 32 -16
WIRE 448 -16 384 -16
WIRE 608 -16 528 -16
WIRE -144 16 -144 0
WIRE -32 64 -48 64
WIRE 48 64 32 64
WIRE 64 64 48 64
WIRE 432 64 384 64
WIRE 48 144 48 64
WIRE 64 144 48 144
WIRE 432 144 432 128
WIRE 432 144 384 144
WIRE 480 144 432 144
WIRE 608 144 608 -16
WIRE 608 144 560 144
WIRE 720 144 608 144
WIRE 832 144 720 144
WIRE 720 160 720 144
WIRE 832 160 832 144
WIRE 48 224 48 144
WIRE 64 224 48 224
WIRE 720 256 720 224
WIRE 832 256 832 240
WIRE -32 304 -48 304
WIRE 64 304 48 304
WIRE 608 304 608 144
WIRE 608 304 384 304
WIRE -160 384 -224 384
WIRE -32 384 -80 384
WIRE 64 384 -32 384
WIRE 400 384 384 384
WIRE 480 384 464 384
WIRE -224 400 -224 384
WIRE -32 400 -32 384
WIRE 176 464 176 448
WIRE 272 464 272 448
WIRE -224 480 -224 464
WIRE -32 480 -32 464
FLAG 480 384 0
FLAG 272 464 0
FLAG -48 304 0
FLAG -224 480 0
FLAG -144 16 0
FLAG 720 256 0
FLAG 832 256 0
FLAG 832 144 OUT
FLAG -144 -96 IN
FLAG -48 64 0
FLAG -32 480 0
FLAG 176 464 0
SYMBOL cap 400 368 M90
WINDOW 0 0 32 VBottom 2
WINDOW 3 32 32 VTop 2
SYMATTR InstName C1
SYMATTR Value 2n
SYMBOL ind 464 160 R270
WINDOW 0 32 56 VTop 2
WINDOW 3 5 56 VBottom 2
SYMATTR InstName L1
SYMATTR Value .47µ
SYMATTR SpiceLine Rser=6m
SYMBOL cap 416 64 R0
SYMATTR InstName C2
SYMATTR Value .1µ
SYMBOL cap 704 160 R0
WINDOW 40 24 74 Left 2
SYMATTR Value 90µ
SYMATTR InstName C3
SYMATTR SpiceLine Rser=2m
SYMBOL res 64 288 R90
WINDOW 0 0 56 VBottom 2
WINDOW 3 32 56 VTop 2
SYMATTR InstName R1
SYMATTR Value 100K
SYMBOL cap -240 400 R0
SYMATTR InstName C5
SYMATTR Value 820p
SYMBOL res -64 368 R90
WINDOW 0 0 56 VBottom 2
WINDOW 3 32 56 VTop 2
SYMATTR InstName R2
SYMATTR Value 27.4K
SYMBOL voltage -144 -96 R0
WINDOW 123 0 0 Left 2
WINDOW 39 0 0 Left 2
SYMATTR InstName V1
SYMATTR Value 5
SYMBOL res 544 -32 R90
WINDOW 0 0 56 VBottom 2
WINDOW 3 32 56 VTop 2
SYMATTR InstName R3
SYMATTR Value 100K
SYMBOL cap 32 48 R90
WINDOW 0 0 32 VBottom 2
WINDOW 3 32 32 VTop 2
SYMATTR InstName C4
SYMATTR Value 1µ
SYMBOL cap -48 400 R0
SYMATTR InstName C6
SYMATTR Value 1p
SYMBOL res 816 144 R0
SYMATTR InstName Rload
SYMATTR Value .2
SYMBOL ADP2165-1.0 224 176 R0
SYMATTR InstName U1
TEXT 696 424 Left 2 !.tran 1m startup
