Version 4
SHEET 1 1044 680
WIRE 48 -128 -144 -128
WIRE 224 -128 48 -128
WIRE -144 -112 -144 -128
WIRE 224 -96 224 -128
WIRE 48 -48 48 -128
WIRE 64 -48 48 -48
WIRE 416 -48 384 -48
WIRE 576 -48 496 -48
WIRE -144 -16 -144 -32
WIRE -16 64 -32 64
WIRE 64 64 48 64
WIRE 416 64 384 64
WIRE 416 80 416 64
WIRE 416 176 416 144
WIRE 416 176 384 176
WIRE 464 176 416 176
WIRE 576 176 576 -48
WIRE 576 176 544 176
WIRE 720 176 576 176
WIRE 864 176 720 176
WIRE 576 192 576 176
WIRE 720 192 720 176
WIRE 864 192 864 176
WIRE -176 288 -224 288
WIRE -80 288 -96 288
WIRE 64 288 -80 288
WIRE 576 288 576 272
WIRE 576 288 384 288
WIRE 720 288 720 256
WIRE 864 288 864 272
WIRE -224 304 -224 288
WIRE -80 304 -80 288
WIRE 576 304 576 288
WIRE -224 384 -224 368
WIRE -80 384 -80 368
WIRE -16 400 -32 400
WIRE 64 400 48 400
WIRE 400 400 384 400
WIRE 496 400 480 400
WIRE 576 400 576 384
WIRE 224 464 224 448
FLAG -32 400 0
FLAG 224 464 0
FLAG 576 400 0
FLAG 496 400 0
FLAG -224 384 0
FLAG -144 -16 0
FLAG 720 288 0
FLAG 864 288 0
FLAG 864 176 OUT
FLAG -144 -128 IN
FLAG -32 64 0
FLAG -80 384 0
SYMBOL cap 48 384 R90
WINDOW 0 0 32 VBottom 2
WINDOW 3 32 32 VTop 2
SYMATTR InstName C1
SYMATTR Value 1n
SYMBOL ind 448 192 R270
WINDOW 0 32 56 VTop 2
WINDOW 3 5 56 VBottom 2
SYMATTR InstName L1
SYMATTR Value 3.3µ
SYMBOL res 560 176 R0
SYMATTR InstName R1
SYMATTR Value 64.9K
SYMBOL res 560 288 R0
SYMATTR InstName R2
SYMATTR Value 16.2K
SYMBOL cap 400 80 R0
SYMATTR InstName C2
SYMATTR Value .1µ
SYMBOL cap 704 192 R0
SYMATTR Value 54µ
SYMATTR InstName C3
SYMBOL res 384 416 R270
WINDOW 0 32 56 VTop 2
WINDOW 3 0 56 VBottom 2
SYMATTR InstName R3
SYMATTR Value 215K
SYMBOL cap -240 304 R0
SYMATTR InstName C4
SYMATTR Value 2.7n
SYMBOL res -80 272 R90
WINDOW 0 0 56 VBottom 2
WINDOW 3 32 56 VTop 2
SYMATTR InstName R4
SYMATTR Value 7.5K
SYMBOL voltage -144 -128 R0
WINDOW 123 0 0 Left 2
WINDOW 39 0 0 Left 2
SYMATTR InstName V1
SYMATTR Value 13.2
SYMBOL res 512 -64 R90
WINDOW 0 0 56 VBottom 2
WINDOW 3 32 56 VTop 2
SYMATTR InstName R5
SYMATTR Value 100K
SYMBOL cap 48 48 R90
WINDOW 0 0 32 VBottom 2
WINDOW 3 32 32 VTop 2
SYMATTR InstName C5
SYMATTR Value 1µ
SYMBOL ADP2384 224 176 R0
SYMATTR InstName U1
SYMBOL cap -96 304 R0
SYMATTR InstName C6
SYMATTR Value 27p
SYMBOL res 848 176 R0
SYMATTR InstName Rload
SYMATTR Value 900m
TEXT 664 424 Left 2 !.tran 4m startup
