Version 4
SHEET 1 1332 692
WIRE 240 -352 144 -352
WIRE 480 -352 240 -352
WIRE 800 -352 544 -352
WIRE 880 -352 800 -352
WIRE 144 -336 144 -352
WIRE 880 -336 880 -352
WIRE 880 -256 880 -272
WIRE 144 -240 144 -272
WIRE 240 -112 240 -352
WIRE 464 -112 240 -112
WIRE 800 -112 800 -352
WIRE 800 -112 576 -112
WIRE 240 -16 240 -112
WIRE 480 -16 240 -16
WIRE 800 -16 800 -112
WIRE 800 -16 560 -16
FLAG 880 -256 0
FLAG 144 -240 0
FLAG 240 -352 XTAL1
FLAG 800 -352 XTAL2
SYMBOL cap 864 -336 R0
SYMATTR InstName C2
SYMATTR Value 22p
SYMBOL cap 128 -336 R0
SYMATTR InstName C1
SYMATTR Value 22p
SYMBOL CD4049B 512 -176 R0
SYMATTR InstName U1
SYMATTR SpiceLine VDD=9  SPEED=1.0  TRIPDT=5e-9
SYMBOL res 576 -32 R90
WINDOW 0 0 56 VBottom 0
WINDOW 3 32 56 VTop 0
SYMATTR InstName R2
SYMATTR Value 10Meg
SYMBOL Misc\\xtal 544 -368 R90
WINDOW 0 0 32 VBottom 0
WINDOW 3 32 32 VTop 0
SYMATTR InstName C3
SYMATTR Value 4p2
SYMATTR SpiceLine Rser=200 Lser=400u Cpar=4p
TEXT 376 112 Left 0 !.tran 0 90u 0 0.5n startup
