Version 4
SHEET 1 880 680
WIRE 32 64 -48 64
WIRE 192 64 112 64
WIRE -48 96 -48 64
WIRE 192 112 192 64
WIRE -48 240 -48 176
WIRE 192 240 192 176
FLAG 192 240 0
FLAG -48 240 0
FLAG 192 64 Vcrystal
FLAG -48 64 Vgen
SYMBOL Misc\\xtal 176 112 R0
SYMATTR InstName C1
SYMATTR Value 3p15
SYMATTR SpiceLine Rser=200 Lser=500u Cpar=10p
SYMBOL voltage -48 80 R0
WINDOW 123 24 132 Left 0
WINDOW 39 0 0 Left 0
SYMATTR Value2 AC 1
SYMATTR InstName V1
SYMATTR Value ""
SYMBOL res 128 48 R90
WINDOW 0 0 56 VBottom 0
WINDOW 3 32 56 VTop 0
SYMATTR InstName R1
SYMATTR Value 50
TEXT -24 288 Left 0 !.ac dec 1000 3e6 5e6
