Version 4
SHEET 1 2440 2180
WIRE 1184 1232 1184 1184
WIRE 1184 1360 1184 1312
WIRE 1344 1488 1328 1488
WIRE 1424 1488 1408 1488
WIRE 1440 1184 1184 1184
WIRE 1440 1232 1440 1184
WIRE 1440 1376 1440 1312
WIRE 1440 1600 1424 1600
WIRE 1536 1376 1440 1376
WIRE 1536 1488 1504 1488
WIRE 1536 1600 1520 1600
WIRE 1600 1184 1440 1184
WIRE 1600 1200 1600 1184
WIRE 1600 1296 1600 1280
WIRE 1632 1696 1632 1680
WIRE 1696 1184 1600 1184
WIRE 1696 1296 1696 1184
WIRE 1760 1696 1760 1680
WIRE 1808 1184 1696 1184
WIRE 1808 1296 1808 1184
WIRE 1872 1376 1856 1376
WIRE 1872 1600 1856 1600
WIRE 1984 1376 1952 1376
WIRE 1984 1392 1984 1376
WIRE 1984 1488 1856 1488
WIRE 1984 1488 1984 1472
WIRE 1984 1504 1984 1488
WIRE 1984 1600 1984 1584
WIRE 2112 1376 1984 1376
WIRE 2112 1472 2112 1376
WIRE 2112 1600 2112 1536
WIRE 2224 1376 2112 1376
WIRE 2224 1472 2224 1376
WIRE 2224 1600 2224 1552
FLAG 1760 1696 0
FLAG 1632 1696 0
FLAG 1184 1360 0
FLAG 1424 1600 0
FLAG 2224 1600 0
FLAG 1984 1600 0
FLAG 2112 1600 0
FLAG 1328 1488 0
FLAG 2224 1376 OUT
FLAG 1872 1600 0
SYMBOL ind 1856 1392 R270
WINDOW 0 32 56 VTop 0
WINDOW 3 5 56 VBottom 0
SYMATTR InstName L1
SYMATTR Value 2.2µ
SYMBOL RES 1968 1376 R0
SYMATTR InstName R1
SYMATTR Value 887K
SYMBOL VOLTAGE 1184 1216 R0
WINDOW 3 27 94 Left 0
SYMATTR Value 5
SYMATTR InstName V1
SYMBOL res 1968 1488 R0
SYMATTR InstName R2
SYMATTR Value 412K
SYMBOL res 1536 1584 R90
WINDOW 0 0 56 VBottom 0
WINDOW 3 32 56 VTop 0
SYMATTR InstName R3
SYMATTR Value 324K
SYMBOL res 1520 1472 R90
WINDOW 0 0 56 VBottom 0
WINDOW 3 32 56 VTop 0
SYMATTR InstName R4
SYMATTR Value 13K
SYMBOL cap 2096 1472 R0
SYMATTR InstName C1
SYMATTR Value 5µ
SYMBOL res 2208 1456 R0
SYMATTR InstName R5
SYMATTR Value 20
SYMBOL cap 1408 1472 R90
WINDOW 0 0 32 VBottom 0
WINDOW 3 32 32 VTop 0
SYMATTR InstName C2
SYMATTR Value 1000p
SYMBOL res 1424 1216 R0
SYMATTR InstName R6
SYMATTR Value 10K
SYMBOL res 1584 1184 R0
SYMATTR InstName R7
SYMATTR Value 10K
SYMBOL PowerProducts\\LTC3412A 1696 1488 R0
SYMATTR InstName U1
TEXT 1968 1648 Left 0 !.tran .3m
