Version 4
SHEET 1 1224 720
WIRE 160 0 -176 0
WIRE -64 64 -128 64
WIRE 16 64 -64 64
WIRE 416 64 352 64
WIRE 496 64 416 64
WIRE 496 80 496 64
WIRE 16 96 16 64
WIRE 416 112 416 64
WIRE 464 112 416 112
WIRE -64 128 -64 64
WIRE -16 128 -64 128
WIRE -176 160 -176 0
WIRE -64 160 -176 160
WIRE 160 160 160 0
WIRE 416 160 160 160
WIRE 64 176 48 176
WIRE 144 176 128 176
WIRE -64 192 -64 160
WIRE -272 208 -288 208
WIRE -192 208 -208 208
WIRE -128 208 -128 64
WIRE -128 208 -192 208
WIRE -96 208 -128 208
WIRE 416 208 416 160
WIRE 16 224 16 160
WIRE 16 224 -32 224
WIRE 48 224 48 176
WIRE 48 224 16 224
WIRE 144 224 144 176
WIRE 192 224 144 224
WIRE 352 224 352 64
WIRE 352 224 336 224
WIRE 384 224 352 224
WIRE -96 240 -128 240
WIRE 496 240 496 144
WIRE 496 240 448 240
WIRE -240 256 -240 240
WIRE -192 256 -192 208
WIRE -192 256 -240 256
WIRE 384 256 336 256
WIRE -288 272 -288 208
WIRE 48 288 48 224
WIRE 64 288 48 288
WIRE 144 288 144 224
WIRE 144 288 128 288
WIRE 160 288 160 160
WIRE 496 288 496 240
WIRE -288 368 -288 336
WIRE -240 368 -288 368
WIRE 496 384 496 352
WIRE -128 400 -128 240
WIRE 160 400 160 368
WIRE 160 400 -128 400
WIRE 288 400 160 400
WIRE 336 400 336 256
WIRE 336 400 288 400
WIRE 544 416 528 416
WIRE -176 448 -176 160
WIRE -32 448 -176 448
WIRE 80 448 48 448
WIRE 288 448 288 400
WIRE -288 464 -288 368
WIRE -176 464 -176 448
WIRE 80 464 80 448
WIRE 160 464 160 400
WIRE 496 464 496 448
WIRE -288 576 -288 544
WIRE -176 576 -176 528
WIRE -176 576 -288 576
WIRE -64 576 -64 256
WIRE -64 576 -176 576
WIRE 80 576 80 544
WIRE 80 576 -64 576
WIRE 160 576 160 544
WIRE 160 576 80 576
WIRE 288 576 288 512
WIRE 288 576 160 576
WIRE 416 576 416 272
WIRE 416 576 288 576
WIRE 496 576 496 544
WIRE 496 576 416 576
WIRE -288 592 -288 576
FLAG 544 416 OUT
IOPIN 544 416 Out
FLAG -288 592 0
FLAG -240 368 IN
IOPIN -240 368 In
SYMBOL Misc\\battery 80 448 R0
WINDOW 123 0 0 Left 0
WINDOW 39 0 0 Left 0
WINDOW 0 6 -7 Left 0
WINDOW 3 6 19 Left 0
SYMATTR InstName Vbat
SYMATTR Value 9v
SYMBOL polcap 304 448 M0
WINDOW 3 24 64 Left 0
SYMATTR Value 22µ
SYMATTR InstName C5
SYMATTR Description Capacitor
SYMATTR Type cap
SYMATTR SpiceLine V=4 Irms=0 Rser=3.5 MTBF=0 Lser=0 mfg="AVX" pn="TAJA226M004" type="Tantalum" ppPkg=1
SYMBOL res 352 208 R90
WINDOW 0 0 56 VBottom 0
WINDOW 3 32 56 VTop 0
SYMATTR InstName R4
SYMATTR Value 1K
SYMATTR SpiceLine tol=1 pwr=0.1
SYMBOL res 144 448 R0
SYMATTR InstName R2
SYMATTR Value 1k
SYMBOL res 144 272 R0
SYMATTR InstName R3
SYMATTR Value 1k
SYMBOL res 480 448 R0
SYMATTR InstName R5
SYMATTR Value 2.21K
SYMATTR SpiceLine tol=1 pwr=0.1
SYMBOL cap 256 208 R90
WINDOW 0 0 32 VBottom 0
WINDOW 3 32 32 VTop 0
SYMATTR InstName C2
SYMATTR Value 0.1µ
SYMATTR SpiceLine V=10 Irms=0 Rser=0.009 MTBF=0 Lser=0 type="X5R" ppPkg=1
SYMBOL diode 128 160 R90
WINDOW 0 0 32 VBottom 0
WINDOW 3 32 32 VTop 0
SYMATTR InstName D1
SYMATTR Value 1N34A
SYMBOL diode 64 304 R270
WINDOW 0 32 32 VTop 0
WINDOW 3 0 32 VBottom 0
SYMATTR InstName D2
SYMATTR Value 1N34A
SYMBOL polcap -192 464 R0
WINDOW 3 24 64 Left 0
SYMATTR Value 47µ
SYMATTR InstName C3
SYMATTR Description Capacitor
SYMATTR Type cap
SYMATTR SpiceLine V=4 Irms=0 Rser=2.4 MTBF=0 Lser=0 mfg="AVX" pn="TAJB476M004" type="Tantalum" ppPkg=1
SYMBOL cap -304 272 R0
SYMATTR InstName C1
SYMATTR Value 0.1µ
SYMATTR SpiceLine V=10 Irms=0 Rser=0.009 MTBF=0 Lser=0 type="X5R" ppPkg=1
SYMBOL res 64 432 R90
WINDOW 0 0 56 VBottom 0
WINDOW 3 32 56 VTop 0
SYMATTR InstName R1
SYMATTR Value 100
SYMATTR SpiceLine tol=1 pwr=0.1
SYMBOL polcap 480 288 R0
WINDOW 3 24 64 Left 0
SYMATTR Value 0.47µ
SYMATTR InstName C6
SYMATTR Description Capacitor
SYMATTR Type cap
SYMATTR SpiceLine V=50 Irms=22m Rser=3.9 MTBF=2000 Lser=0 mfg="Nichicon" pn="UPL1HR47MAH" type="Al electrolytic" ppPkg=1
SYMBOL Misc\\signal -288 448 R0
WINDOW 0 10 3 Left 0
WINDOW 3 24 104 Invisible 0
WINDOW 123 0 0 Left 0
WINDOW 39 0 0 Left 0
SYMATTR InstName Vsine
SYMATTR Value SINE(0 .1 1K)
SYMBOL Robertugo\\OPAMP5 -64 160 R0
WINDOW 0 -33 63 Left 0
SYMATTR InstName U1a
SYMATTR SpiceModel level2
SYMBOL Robertugo\\OPAMP5 416 176 R0
WINDOW 0 -31 63 Left 0
WINDOW 38 3 18 Left 0
SYMATTR InstName U1b
SYMATTR SpiceModel level2
SYMBOL Robertugo\\Pote -304 224 R270
WINDOW 0 -16 74 VRight 0
WINDOW 3 82 15 VRight 0
WINDOW 123 50 50 VCenter 0
SYMATTR InstName P1
SYMATTR Value Rt=100K
SYMBOL Robertugo\\Pote 480 48 R0
WINDOW 0 -10 0 Left 0
WINDOW 3 -91 87 Left 0
WINDOW 123 -25 31 Center 0
SYMATTR InstName P3
SYMATTR Value Rt=10K
SYMATTR Value2 Set=1
SYMBOL Robertugo\\Pote 512 352 M0
WINDOW 3 -96 98 Left 0
WINDOW 123 -58 33 Center 0
SYMATTR InstName P4
SYMATTR Value Rt=100K
SYMBOL Robertugo\\Pote 0 64 R0
WINDOW 0 -32 16 Left 0
WINDOW 3 39 43 Left 0
WINDOW 123 74 15 Center 0
SYMATTR InstName P2
SYMATTR Value Rt=100K
TEXT -304 -16 Left 0 ;Single 9v Battery Supply Dual Op-Amp Distortion Preamplifier For Electric Guitar
TEXT -296 16 Left 0 !.tran 10ms
TEXT -136 24 Left 0 ;U1 AND U2 MC1458
