Version 4
SHEET 1 1024 680
WIRE 32 0 -48 0
WIRE -48 16 -48 0
WIRE -48 112 -48 96
WIRE -48 160 -112 160
WIRE 416 160 224 160
WIRE 224 176 224 160
WIRE -48 192 -48 160
WIRE 224 272 224 256
WIRE -48 304 -48 272
FLAG -112 160 IN
IOPIN -112 160 In
FLAG 416 160 OUT
IOPIN 416 160 Out
FLAG -48 112 0
FLAG 32 0 SERRA
FLAG 224 272 0
FLAG -48 304 0
SYMBOL bv -48 0 R0
SYMATTR InstName B1
SYMATTR Value V=MOD(time*fsw,1)
SYMBOL bv 224 160 R0
SYMATTR InstName B2
SYMATTR Value V=V(IN)>V(SERRA)
SYMBOL res -64 176 R0
SYMATTR InstName R1
SYMATTR Value 1Meg
TEXT -424 160 Left 2 ;entrada sinal de 0 a 1
TEXT 504 160 Left 2 ;saída PWM
TEXT -48 432 Left 2 !.function MOD(x,y)= x-int(x/y)*y
