Version 4
SHEET 1 912 680
WIRE 576 160 128 160
WIRE 400 176 304 176
WIRE 496 176 400 176
WIRE 176 192 -192 192
WIRE 208 192 176 192
WIRE 304 192 304 176
WIRE -48 208 -128 208
WIRE 128 208 128 160
WIRE 128 208 48 208
WIRE 400 208 400 176
WIRE -192 224 -192 192
WIRE 624 224 560 224
WIRE 624 240 624 224
WIRE 0 288 0 272
WIRE 32 288 0 288
WIRE 128 288 128 208
WIRE 128 288 112 288
WIRE 304 288 304 272
WIRE 304 288 160 288
WIRE 496 288 496 272
WIRE 0 304 0 288
WIRE 208 320 208 192
WIRE 256 320 208 320
WIRE 400 320 400 288
WIRE 400 320 336 320
WIRE 432 320 400 320
WIRE 528 320 496 320
WIRE 576 320 576 160
WIRE 576 320 528 320
WIRE -128 336 -128 208
WIRE 624 336 624 320
WIRE 208 352 208 320
WIRE 528 352 528 320
WIRE 624 352 624 336
WIRE 400 368 400 320
WIRE 0 384 0 368
WIRE 64 384 0 384
WIRE 160 384 160 288
WIRE 160 384 64 384
WIRE -224 400 -224 384
WIRE -224 400 -240 400
WIRE -192 400 -192 304
WIRE -192 400 -224 400
WIRE 0 400 0 384
WIRE -240 416 -240 400
WIRE -192 416 -192 400
WIRE 128 448 128 288
WIRE 208 448 208 432
WIRE 400 448 400 432
WIRE 400 448 208 448
WIRE 528 448 528 416
WIRE 528 448 400 448
WIRE 624 448 624 432
WIRE 624 448 528 448
WIRE -128 480 -128 416
WIRE -128 480 -144 480
WIRE -112 480 -128 480
WIRE 0 480 0 464
WIRE 0 480 -32 480
WIRE -240 496 -240 480
WIRE 0 496 0 480
WIRE 208 496 208 448
WIRE 240 496 208 496
WIRE 240 512 240 496
WIRE -128 544 -128 480
WIRE -128 560 -128 544
WIRE -48 560 -128 560
WIRE 128 560 128 528
WIRE 128 560 48 560
WIRE -240 592 -240 576
WIRE -192 592 -192 480
WIRE -192 592 -240 592
WIRE 208 592 208 496
WIRE 208 592 -192 592
FLAG 240 512 0
FLAG 496 288 0
FLAG 176 192 Fase
FLAG -224 384 Carga
FLAG 528 320 +V
FLAG -128 544 G
FLAG 64 384 Drv
FLAG 624 336 _in
SYMBOL voltage 208 336 R0
WINDOW 3 14 98 Left 0
WINDOW 123 0 0 Left 0
WINDOW 39 0 0 Left 0
WINDOW 0 -17 58 Left 0
SYMATTR Value SINE(0 315 50)
SYMATTR InstName Vac
SYMBOL Miscel\\zener 384 432 M180
WINDOW 3 24 0 Invisible 0
WINDOW 0 48 33 Left 0
SYMATTR Value BZX84C12L
SYMATTR InstName Dz
SYMBOL diode 432 336 R270
WINDOW 0 -34 -1 VTop 0
WINDOW 3 -8 54 VBottom 0
SYMATTR InstName Dr
SYMATTR Value 1N914
SYMBOL res 352 304 R90
WINDOW 0 46 98 VBottom 0
WINDOW 3 17 3 VTop 0
SYMATTR InstName R1
SYMATTR Value 7k
SYMBOL polcap 512 352 R0
SYMATTR InstName Cf
SYMATTR Value 220µ
SYMATTR Description Capacitor
SYMATTR Type cap
SYMATTR SpiceLine V=16 Irms=460m Rser=0.16 MTBF=3000 Lser=0 mfg="Nichicon" pn="UPL1C221MPH" type="Al electrolytic" ppPkg=1
SYMBOL pnp2 -48 272 R270
WINDOW 0 33 32 VRight 0
WINDOW 3 55 9 VRight 0
SYMATTR InstName Q1
SYMATTR Value 2N3906
SYMBOL npn2 48 496 R90
WINDOW 0 33 33 VRight 0
WINDOW 3 70 6 VRight 0
SYMATTR InstName Q2
SYMATTR Value 2N3904
SYMBOL cap -16 304 R0
WINDOW 0 -37 26 Left 0
WINDOW 3 -35 50 Left 0
SYMATTR InstName C1
SYMATTR Value 47n
SYMBOL cap -16 400 R0
WINDOW 0 -46 22 Left 0
WINDOW 3 -45 45 Left 0
SYMATTR InstName C2
SYMATTR Value 47n
SYMBOL res 128 272 R90
WINDOW 0 0 68 VBottom 0
WINDOW 3 -28 24 VTop 0
SYMATTR InstName R2
SYMATTR Value 10K
SYMATTR SpiceLine tol=1 pwr=0.1
SYMBOL res -16 464 R90
WINDOW 0 62 86 VBottom 0
WINDOW 3 34 42 VTop 0
SYMATTR InstName R3
SYMATTR Value 10K
SYMATTR SpiceLine tol=1 pwr=0.1
SYMBOL res -112 432 R180
WINDOW 0 -18 77 Bottom 0
WINDOW 3 -20 23 Top 0
SYMATTR InstName R4
SYMATTR Value 100
SYMATTR SpiceLine tol=1 pwr=0.1
SYMBOL res 144 544 R180
WINDOW 0 54 91 Bottom 0
WINDOW 3 52 34 Top 0
SYMATTR InstName R5
SYMATTR Value 100
SYMATTR SpiceLine tol=1 pwr=0.1
SYMBOL res 320 288 R180
WINDOW 0 36 76 Left 0
WINDOW 3 36 40 Left 0
SYMATTR InstName R6
SYMATTR Value 1K5
SYMATTR SpiceLine tol=1 pwr=0.1
SYMBOL res 416 304 R180
WINDOW 0 36 76 Left 0
WINDOW 3 36 40 Left 0
SYMATTR InstName R7
SYMATTR Value 4k7
SYMATTR SpiceLine tol=1 pwr=0.1
SYMBOL Triac_All -160 416 M0
WINDOW 0 28 0 Right 0
WINDOW 38 14 165 VLeft 0
SYMATTR InstName U1
SYMATTR SpiceModel L6008L6
SYMBOL npn2 560 176 M0
WINDOW 0 33 33 VRight 0
WINDOW 3 70 6 VRight 0
SYMATTR InstName Q3
SYMATTR Value 2N3904
SYMBOL res -256 480 R0
WINDOW 0 27 49 Left 0
WINDOW 3 21 82 Left 0
SYMATTR InstName R8
SYMATTR Value 220
SYMBOL cap -256 416 R0
SYMATTR InstName C3
SYMATTR Value .1µ
SYMBOL res -208 208 R0
SYMATTR InstName RL
SYMATTR Value 100
SYMBOL res 608 224 R0
SYMATTR InstName R9
SYMATTR Value 10k
SYMBOL voltage 624 336 R0
WINDOW 3 -258 132 Left 0
WINDOW 123 0 0 Left 0
WINDOW 39 0 0 Left 0
WINDOW 0 -24 60 Left 0
SYMATTR Value PULSE(0 10 0 1u 1u 1 2)
SYMATTR InstName _Vctrl
TEXT 424 424 Left 0 ;1/4w
TEXT -192 176 Left 0 !.tran 4
