Version 4
SHEET 1 1284 908
WIRE -128 272 -176 272
WIRE 16 272 -48 272
WIRE 384 272 16 272
WIRE 672 272 448 272
WIRE 704 272 672 272
WIRE 768 272 704 272
WIRE -432 320 -496 320
WIRE 16 320 16 272
WIRE 16 320 -208 320
WIRE 80 320 16 320
WIRE 192 320 144 320
WIRE 256 320 192 320
WIRE 304 320 256 320
WIRE 368 320 304 320
WIRE 512 320 464 320
WIRE 560 320 512 320
WIRE 704 320 704 272
WIRE 704 320 640 320
WIRE 304 336 304 320
WIRE 368 336 368 320
WIRE 464 336 464 320
WIRE -176 352 -176 272
WIRE -112 352 -176 352
WIRE -32 352 -112 352
WIRE -32 368 -32 352
WIRE -432 384 -480 384
WIRE -176 384 -176 352
WIRE -176 384 -208 384
WIRE -112 384 -112 352
WIRE 192 400 192 320
WIRE 512 400 512 384
WIRE 16 416 16 320
WIRE 304 432 304 416
WIRE 416 432 416 400
WIRE 416 432 304 432
WIRE 768 432 768 272
WIRE -432 448 -464 448
WIRE -176 448 -208 448
WIRE 304 448 304 432
WIRE 608 464 592 464
WIRE 704 464 704 320
WIRE 704 464 688 464
WIRE -176 480 -176 448
WIRE -112 480 -112 448
WIRE -112 480 -176 480
WIRE -32 480 -32 448
WIRE -32 480 -112 480
WIRE -432 512 -448 512
WIRE -192 512 -208 512
WIRE 592 528 592 464
WIRE 704 528 704 464
WIRE -448 544 -448 512
WIRE -304 544 -448 544
WIRE 16 544 16 416
WIRE 16 544 -304 544
WIRE 304 544 304 528
WIRE 448 544 432 544
WIRE 512 544 448 544
WIRE -464 592 -464 448
WIRE -384 592 -464 592
WIRE -192 592 -384 592
WIRE 240 592 -112 592
WIRE 448 592 448 544
WIRE 592 592 592 528
WIRE 592 592 576 592
WIRE 192 624 192 464
WIRE -480 640 -480 384
WIRE -416 640 -480 640
WIRE -32 640 -32 480
WIRE -32 640 -416 640
WIRE 592 640 592 592
WIRE -304 656 -304 544
WIRE -208 656 -304 656
WIRE 192 656 192 624
WIRE 16 672 16 544
WIRE 304 672 304 640
WIRE 512 672 512 640
WIRE 512 672 304 672
WIRE -416 688 -416 640
WIRE -304 688 -304 656
WIRE -208 688 -208 656
WIRE 304 688 304 672
WIRE 448 720 448 656
WIRE 480 720 448 720
WIRE 480 736 480 720
WIRE -496 768 -496 320
WIRE -416 768 -416 752
WIRE -416 768 -496 768
WIRE -304 768 -304 752
WIRE -304 768 -416 768
WIRE -208 768 -208 752
WIRE -208 768 -304 768
WIRE 16 768 16 736
WIRE 16 768 -208 768
WIRE 192 768 192 736
WIRE 192 768 16 768
WIRE 304 768 304 752
WIRE 304 768 192 768
WIRE 448 768 448 720
WIRE 448 768 304 768
WIRE 592 768 592 720
WIRE 592 768 448 768
WIRE 704 768 704 592
WIRE 704 768 592 768
WIRE 768 768 768 512
WIRE 768 768 704 768
FLAG 672 272 Out
FLAG 592 528 beQctrl
FLAG -384 592 Out555
FLAG -192 512 Pwm
IOPIN -192 512 In
FLAG 16 416 Alim555
FLAG 192 624 Alim
FLAG 480 736 0
FLAG 512 400 0
FLAG 256 320 Pin
FLAG 432 544 Pwm
IOPIN 432 544 Out
SYMBOL ind 544 336 R270
WINDOW 0 19 116 VTop 0
WINDOW 3 8 123 VBottom 0
SYMATTR InstName Lf
SYMATTR Value 470µ
SYMATTR SpiceLine Rser=.4 Rpar=1430
SYMBOL diode 496 384 M180
WINDOW 0 38 23 Left 0
WINDOW 3 37 -1 Left 0
SYMATTR InstName Dsw
SYMATTR Value MURS320
SYMBOL res 784 528 R180
WINDOW 0 26 84 Left 0
WINDOW 3 39 47 Left 0
SYMATTR InstName RL
SYMATTR Value 10
SYMBOL diode 448 256 R90
WINDOW 0 47 87 VBottom 0
WINDOW 3 18 -52 VTop 0
SYMATTR InstName Dalim
SYMATTR Value MBRS1100
SYMBOL pnp2 464 400 M270
WINDOW 0 49 76 VLeft 0
WINDOW 3 80 87 VLeft 0
SYMATTR InstName Qout
SYMATTR Value BD138F
SYMBOL npn2 240 544 R0
WINDOW 0 28 36 Left 0
WINDOW 3 29 60 Left 0
SYMATTR InstName QDrv
SYMATTR Value BC546B
SYMBOL npn 576 544 M0
WINDOW 0 59 34 Left 0
WINDOW 3 28 57 Left 0
SYMATTR InstName QCtrl
SYMATTR Value BC548A
SYMBOL res 608 736 R180
WINDOW 0 36 76 Left 0
WINDOW 3 36 40 Left 0
SYMATTR InstName Rd1
SYMATTR Value 3k3
SYMATTR SpiceLine tol=1 pwr=0.1
SYMBOL res 592 480 R270
WINDOW 0 36 48 VTop 0
WINDOW 3 -8 57 VBottom 0
SYMATTR InstName Rd2
SYMATTR Value 10k
SYMATTR SpiceLine tol=1 pwr=0.1
SYMBOL polcap 688 528 R0
WINDOW 3 5 56 Right 0
WINDOW 0 -8 34 Right 0
SYMATTR Value 47µ
SYMATTR InstName Cf0
SYMATTR Description Capacitor
SYMATTR Type cap
SYMATTR SpiceLine V=16 Irms=1.5 Rser=0.07 MTBF=0 Lser=0 mfg="KEMET" pn="T520D476M016ASE070" type="Tantalum" ppPkg=1
SYMBOL res 320 432 R180
WINDOW 0 36 76 Left 0
WINDOW 3 36 40 Left 0
SYMATTR InstName Rbe
SYMATTR Value 47
SYMBOL cap -400 688 M0
WINDOW 0 70 30 Right 0
WINDOW 3 73 53 Right 0
SYMATTR InstName Ct
SYMATTR Value 1n
SYMBOL diode 176 464 M180
WINDOW 0 -6 66 Right 0
WINDOW 3 -5 35 Right 0
SYMATTR InstName Dpol
SYMATTR Value MBRS1100
SYMBOL res -16 464 R180
WINDOW 0 28 18 VTop 0
WINDOW 3 31 80 VTop 0
SYMATTR InstName Rtoff
SYMATTR Value 22k
SYMATTR SpiceLine tol=1 pwr=0.1
SYMBOL res -32 256 R90
WINDOW 0 35 80 VRight 0
WINDOW 3 35 -24 VRight 0
SYMATTR InstName Rton
SYMATTR Value 5k6
SYMATTR SpiceLine tol=1 pwr=0.1
SYMBOL voltage 192 640 M0
WINDOW 0 -54 124 Bottom 0
WINDOW 3 -2 73 Bottom 0
WINDOW 123 41 81 Top 0
SYMATTR InstName VLocom
SYMATTR Value 80
SYMATTR SpiceLine Rser=.1
SYMBOL res -96 576 R90
WINDOW 0 2 94 VRight 0
WINDOW 3 0 -21 VRight 0
SYMATTR InstName Rbuf
SYMATTR Value 56
SYMATTR SpiceLine tol=1 pwr=0.1
SYMBOL polcap 144 304 R90
WINDOW 0 20 81 VTop 0
WINDOW 3 -15 72 VTop 0
SYMATTR InstName Cstart
SYMATTR Value 4.7µ
SYMATTR Description Capacitor
SYMATTR Type cap
SYMATTR SpiceLine V=63 Irms=170m Rser=1 MTBF=5000 Lser=0 mfg="Nichicon" pn="UPG1J4R7MPH" type="Al electrolytic" ppPkg=1
SYMBOL diode -128 384 R0
WINDOW 0 -12 46 VRight 0
WINDOW 3 -12 -28 VRight 0
SYMATTR InstName Don
SYMATTR Value 1N914
SYMBOL 555_ALL -272 432 R0
WINDOW 38 -86 79 Left 0
SYMATTR InstName U2
SYMBOL polcap -320 688 R0
WINDOW 3 5 56 Right 0
WINDOW 0 -8 34 Right 0
SYMATTR Value 22µ
SYMATTR InstName Cf1
SYMATTR Description Capacitor
SYMATTR Type cap
SYMATTR SpiceLine V=35 Irms=160m Rser=0.75 MTBF=2000 Lser=0 mfg="Nichicon" pn="UPL1V220MAH" type="Al electrolytic" ppPkg=1
SYMBOL res 288 432 R0
WINDOW 3 -30 64 Left 0
WINDOW 0 -29 30 Left 0
SYMATTR Value 820
SYMATTR InstName Rc
SYMBOL cap -224 688 R0
SYMATTR InstName C1
SYMATTR Value 100n
SYMBOL zener 320 752 R180
WINDOW 0 -71 32 Left 0
WINDOW 3 -127 1 Left 0
SYMATTR InstName Dstab
SYMATTR Value BZX84C2V7
SYMBOL cap 432 592 R0
WINDOW 0 -25 11 Left 0
WINDOW 3 -28 58 Left 0
SYMATTR InstName Cf
SYMATTR Value 3n9
SYMBOL zener 32 736 R180
WINDOW 0 -71 32 Left 0
WINDOW 3 -127 1 Left 0
SYMATTR InstName Dprot
SYMATTR Value BZX84C15L
TEXT -440 272 Left 0 !.tran 5m startup
TEXT 144 304 Left 0 ;x100V
TEXT 240 528 Left 0 ;x1W5
TEXT 40 752 Left 0 ;x5W
TEXT 16 256 Left 0 ;Conversor 70u80v a 12v6 X 25w
TEXT 176 488 VRight 0 ;Fuse 1A
