Version 4
SHEET 1 880 680
WIRE 96 -592 80 -592
WIRE 112 -592 96 -592
WIRE 96 -576 96 -592
WIRE -384 -528 -816 -528
WIRE 16 -528 -384 -528
WIRE -416 -496 -816 -496
WIRE 16 -496 -416 -496
WIRE -448 -464 -816 -464
WIRE 16 -464 -448 -464
WIRE -480 -432 -816 -432
WIRE 16 -432 -480 -432
WIRE -512 -400 -816 -400
WIRE 16 -400 -512 -400
WIRE -544 -368 -816 -368
WIRE 16 -368 -544 -368
WIRE -576 -336 -816 -336
WIRE 16 -336 -576 -336
WIRE -608 -304 -816 -304
WIRE 16 -304 -608 -304
WIRE -640 -272 -816 -272
WIRE 16 -272 -640 -272
WIRE -672 -240 -816 -240
WIRE 16 -240 -672 -240
WIRE -704 -208 -816 -208
WIRE 16 -208 -704 -208
WIRE 240 -208 176 -208
WIRE -736 -176 -816 -176
WIRE 16 -176 -736 -176
WIRE 240 -176 176 -176
WIRE 240 -144 176 -144
WIRE -240 -128 -256 -128
WIRE -224 -128 -240 -128
WIRE -240 -112 -240 -128
WIRE 240 -112 176 -112
WIRE 240 -80 176 -80
WIRE -384 -64 -384 -528
WIRE -320 -64 -384 -64
WIRE 16 -64 -160 -64
WIRE 240 -48 176 -48
WIRE -416 -32 -416 -496
WIRE -320 -32 -416 -32
WIRE 16 -32 -160 -32
WIRE 240 -16 176 -16
WIRE -448 0 -448 -464
WIRE -320 0 -448 0
WIRE 16 0 -160 0
WIRE 240 16 176 16
WIRE -480 32 -480 -432
WIRE -320 32 -480 32
WIRE 16 32 -160 32
WIRE 240 48 176 48
WIRE -512 64 -512 -400
WIRE -320 64 -512 64
WIRE 16 64 -160 64
WIRE 240 80 176 80
WIRE -544 96 -544 -368
WIRE -320 96 -544 96
WIRE 16 96 -160 96
WIRE 240 112 176 112
WIRE -576 128 -576 -336
WIRE -320 128 -576 128
WIRE 16 128 -160 128
WIRE 240 144 176 144
WIRE -608 160 -608 -304
WIRE -320 160 -608 160
WIRE 16 160 -160 160
WIRE 240 176 176 176
WIRE -640 192 -640 -272
WIRE -320 192 -640 192
WIRE 16 192 -160 192
WIRE -672 224 -672 -240
WIRE -320 224 -672 224
WIRE 16 224 -160 224
WIRE -704 256 -704 -208
WIRE -320 256 -704 256
WIRE 16 256 -160 256
WIRE -736 288 -736 -176
WIRE -320 288 -736 288
WIRE 16 288 -160 288
WIRE -320 336 -656 336
WIRE 16 352 -16 352
WIRE -16 368 -16 352
WIRE -16 368 -32 368
WIRE 0 368 -16 368
WIRE -240 384 -240 368
WIRE -240 384 -256 384
WIRE -224 384 -240 384
WIRE -16 384 -32 368
WIRE -16 384 0 368
WIRE -240 400 -256 384
WIRE -240 400 -224 384
WIRE 96 400 96 384
WIRE 96 400 80 400
WIRE 112 400 96 400
WIRE 96 416 80 400
WIRE 96 416 112 400
FLAG 96 -592 Vdd
FLAG 96 400 Vss
FLAG 240 176 Y0
IOPIN 240 176 Out
FLAG 240 144 Y1
IOPIN 240 144 Out
FLAG 240 112 Y2
IOPIN 240 112 Out
FLAG 240 80 Y3
IOPIN 240 80 Out
FLAG 240 48 Y4
IOPIN 240 48 Out
FLAG 240 16 Y5
IOPIN 240 16 Out
FLAG 240 -16 Y6
IOPIN 240 -16 Out
FLAG 240 -48 Y7
IOPIN 240 -48 Out
FLAG 240 -80 Y8
IOPIN 240 -80 Out
FLAG -16 368 Vss
FLAG -816 -176 A0
IOPIN -816 -176 In
FLAG -816 -208 A1
IOPIN -816 -208 In
FLAG -816 -240 A2
IOPIN -816 -240 In
FLAG -816 -272 A3
IOPIN -816 -272 In
FLAG -816 -304 A4
IOPIN -816 -304 In
FLAG -816 -336 A5
IOPIN -816 -336 In
FLAG -816 -368 A6
IOPIN -816 -368 In
FLAG -816 -400 A7
IOPIN -816 -400 In
FLAG -656 336 CLK
IOPIN -656 336 In
FLAG -240 384 Vss
FLAG -240 -128 Vdd
FLAG -816 -432 A8
IOPIN -816 -432 In
FLAG -816 -464 A9
IOPIN -816 -464 In
FLAG -816 -496 A10
IOPIN -816 -496 In
FLAG -816 -528 A11
IOPIN -816 -528 In
FLAG 240 -112 Y9
IOPIN 240 -112 Out
FLAG 240 -144 Y10
IOPIN 240 -144 Out
FLAG 240 -176 Y11
IOPIN 240 -176 Out
FLAG 240 -208 Y12
IOPIN 240 -208 Out
SYMBOL 12bitadder 16 384 R0
WINDOW 0 63 -919 Left 0
SYMATTR InstName X1
SYMBOL 12bitreg -320 368 R0
WINDOW 1 78 -178 VLeft 0
SYMATTR InstName X2
