Version 4
SHEET 1 6308 700
WIRE 800 -352 800 -368
WIRE 752 -336 720 -336
WIRE 752 -272 752 -288
WIRE 800 -272 752 -272
WIRE 800 -256 800 -272
WIRE 1616 -176 1616 -208
WIRE 1760 -112 1664 -112
WIRE 1664 -96 1664 -112
WIRE 656 -80 640 -80
WIRE 704 -80 656 -80
WIRE 864 -80 784 -80
WIRE 960 -80 864 -80
WIRE 1104 -80 1008 -80
WIRE 1248 -80 1184 -80
WIRE 1360 -80 1248 -80
WIRE 640 -64 640 -80
WIRE 864 -64 864 -80
WIRE 1008 -64 1008 -80
WIRE 1248 -64 1248 -80
WIRE 592 -48 560 -48
WIRE 960 -48 960 -80
WIRE 592 0 560 0
WIRE 1664 0 1664 -16
WIRE 864 16 864 0
WIRE 960 16 960 0
WIRE 1008 16 960 16
WIRE 1248 16 1248 0
WIRE 1008 32 1008 16
FLAG 1760 -112 Vout
IOPIN 1760 -112 Out
FLAG 1616 -208 VDD
IOPIN 1616 -208 Out
FLAG 560 -48 Vinp
IOPIN 560 -48 In
FLAG 768 -32 Clock
FLAG 560 0 Vinm
IOPIN 560 0 In
FLAG 640 16 0
FLAG 864 16 0
FLAG 1248 16 0
FLAG 720 -336 Vdd
FLAG 800 -256 0
FLAG 800 -368 tp
FLAG 720 -32 tp
FLAG 1168 -32 tp
FLAG 656 -80 diff
FLAG 864 -80 sample
FLAG 1248 -80 hold
FLAG 1120 -32 Clock
FLAG 1008 32 0
FLAG 1664 0 0
SYMBOL e 640 -80 R0
SYMATTR InstName E1
SYMATTR Value 1
SYMBOL sw 800 -80 M270
WINDOW 3 24 -12 Left 0
WINDOW 38 39 37 Left 0
WINDOW 0 35 82 Left 0
SYMATTR Value ""
SYMATTR SpiceModel switch
SYMATTR InstName S3
SYMBOL sw 1200 -80 M270
WINDOW 3 24 -12 Left 0
WINDOW 38 39 37 Left 0
WINDOW 0 35 82 Left 0
SYMATTR Value ""
SYMATTR SpiceModel switch
SYMATTR InstName S4
SYMBOL cap 848 -64 R0
SYMATTR InstName C1
SYMATTR Value 100p
SYMBOL cap 1232 -64 R0
SYMATTR InstName C2
SYMATTR Value 100p
SYMBOL e 800 -368 R0
WINDOW 0 36 32 Left 0
WINDOW 3 37 73 Left 0
SYMATTR InstName Etp
SYMATTR Value 0.5
SYMBOL e 1008 -80 R0
WINDOW 0 36 32 Left 0
WINDOW 3 37 73 Left 0
SYMATTR InstName E2
SYMATTR Value 1
SYMBOL bv 1664 -112 R0
SYMATTR InstName B1
SYMATTR Value V=v(hold)>0?v(vdd):0
TEXT 952 152 Left 0 !.model switch SW
TEXT 600 80 Left 0 !.ic v(hold)=1 v(sample)=1
