Version 4
SHEET 1 2804 696
WIRE 1552 -656 1536 -656
WIRE 976 -592 976 -608
WIRE 1024 -592 976 -592
WIRE 1552 -592 1552 -608
WIRE 1600 -592 1552 -592
WIRE 1024 -576 1024 -592
WIRE 1600 -576 1600 -592
WIRE 1808 -352 1664 -352
WIRE 2016 -352 1872 -352
WIRE 1104 -256 1008 -256
WIRE 1584 -224 1376 -224
WIRE 1664 -224 1664 -352
WIRE 1664 -224 1584 -224
WIRE 1696 -224 1664 -224
WIRE 1104 -192 1104 -256
WIRE 1376 -192 1376 -224
WIRE 2016 -176 2016 -352
WIRE 2016 -176 1984 -176
WIRE 2176 -176 2016 -176
WIRE 2224 -176 2176 -176
WIRE 2704 -144 2704 -176
WIRE 1696 -128 1632 -128
WIRE 2544 -128 2512 -128
WIRE 2608 -128 2544 -128
WIRE 2672 -128 2608 -128
WIRE 2768 -128 2736 -128
WIRE 2800 -128 2768 -128
WIRE 2704 -96 2704 -112
WIRE 1104 -80 1104 -112
WIRE 1200 -80 1104 -80
WIRE 1376 -80 1376 -112
WIRE 1376 -80 1264 -80
WIRE 2224 -80 2176 -80
WIRE 1104 -48 1104 -80
WIRE 1376 -48 1376 -80
WIRE 2352 0 2352 -48
WIRE 1856 112 1856 96
WIRE 1104 128 1104 32
WIRE 1760 128 1104 128
WIRE 1824 128 1760 128
WIRE 2544 128 2544 -128
WIRE 2544 128 1888 128
WIRE 1856 176 1856 144
FLAG 1008 -256 Vin
IOPIN 1008 -256 In
FLAG 2176 -80 Vcm
FLAG 2352 -208 Vdd
FLAG 2352 0 phi0
IOPIN 2352 0 In
FLAG 2608 -128 cmp
FLAG 2176 -176 Vint
FLAG 1856 96 Vref
IOPIN 1856 96 In
FLAG 1856 176 0
FLAG 1632 -128 Vcm
FLAG 1584 -224 diff
FLAG 1760 128 Vfb
FLAG 1376 32 Vcm
FLAG 1024 -576 0
FLAG 976 -656 Vdd
FLAG 1024 -672 trip
FLAG 1056 -128 trip
FLAG 1056 -32 phi1
FLAG 1328 -176 phi1
FLAG 1328 16 trip
FLAG 1056 -176 phi0
FLAG 1328 -32 phi0
FLAG 1056 16 trip
FLAG 1328 -128 trip
FLAG 2768 -128 out
FLAG 2704 -96 0
FLAG 2704 -176 Vdd
FLAG 1600 -576 0
FLAG 1536 -656 Vref
FLAG 1600 -672 Vcm
SYMBOL cap 1872 -368 R90
WINDOW 0 0 32 VBottom 0
WINDOW 3 32 32 VTop 0
SYMATTR InstName Cint
SYMATTR Value 1p
SYMATTR SpiceLine ic=1mV
SYMBOL Ideal_clocked_comparator 2272 -128 R0
SYMATTR InstName X4
SYMBOL INV 1888 160 M0
SYMATTR InstName X1
SYMBOL Ideal_op_amp 1744 -176 R0
SYMATTR InstName X2
SYMBOL sw 1104 -96 M180
WINDOW 3 24 -12 Left 0
WINDOW 38 39 37 Left 0
WINDOW 0 35 82 Left 0
SYMATTR Value ""
SYMATTR SpiceModel switch
SYMATTR InstName S1
SYMBOL cap 1264 -96 R90
WINDOW 0 0 32 VBottom 0
WINDOW 3 32 32 VTop 0
SYMATTR InstName Cin
SYMATTR Value 0.25p
SYMBOL sw 1104 48 M180
WINDOW 3 24 -12 Left 0
WINDOW 38 39 37 Left 0
WINDOW 0 35 82 Left 0
SYMATTR Value ""
SYMATTR SpiceModel switch
SYMATTR InstName S2
SYMBOL sw 1376 -96 M180
WINDOW 3 24 -12 Left 0
WINDOW 38 39 37 Left 0
WINDOW 0 35 82 Left 0
SYMATTR Value ""
SYMATTR SpiceModel switch
SYMATTR InstName S3
SYMBOL sw 1376 48 M180
WINDOW 3 24 -12 Left 0
WINDOW 38 39 37 Left 0
WINDOW 0 35 82 Left 0
SYMATTR Value ""
SYMATTR SpiceModel switch
SYMATTR InstName S4
SYMBOL e 1024 -688 R0
WINDOW 0 39 37 Left 0
WINDOW 3 38 79 Left 0
SYMATTR InstName Etrip
SYMATTR Value 0.5
SYMBOL INV 2672 -96 R0
SYMATTR InstName X3
SYMBOL e 1600 -688 R0
WINDOW 0 39 37 Left 0
WINDOW 3 38 79 Left 0
SYMATTR InstName Ecm
SYMATTR Value 0.5
TEXT 1104 -376 Left 0 !.model switch sw ron=10
