Version 4
SHEET 1 2740 696
WIRE 1328 -608 1328 -640
WIRE 1488 -608 1488 -640
WIRE 1648 -608 1648 -640
WIRE 1792 -608 1792 -640
WIRE 1968 -608 1968 -640
WIRE 1760 -320 1728 -320
WIRE 2080 -272 2048 -272
WIRE 2272 -272 2080 -272
WIRE 2336 -272 2272 -272
WIRE 1264 -224 1232 -224
WIRE 1328 -224 1264 -224
WIRE 1504 -224 1408 -224
WIRE 1648 -224 1504 -224
WIRE 1696 -224 1648 -224
WIRE 1760 -224 1696 -224
WIRE 1648 -192 1648 -224
WIRE 1888 -176 1888 -192
WIRE 1504 -160 1504 -224
WIRE 1648 -112 1648 -128
WIRE 1808 -48 1808 -64
WIRE 1504 -32 1504 -80
WIRE 1776 -32 1504 -32
WIRE 2080 -32 2080 -272
WIRE 2080 -32 1840 -32
WIRE 1808 16 1808 -16
FLAG 1328 -608 0
FLAG 1264 -224 Vin
FLAG 1968 -608 0
FLAG 1968 -720 clk
FLAG 1648 -608 0
FLAG 1648 -720 VDD
FLAG 1792 -608 0
FLAG 1792 -720 VCM
FLAG 1728 -320 VCM
FLAG 1888 -352 VDD
FLAG 1888 -176 clk
FLAG 2272 -272 Vout
FLAG 1696 -224 Vint
FLAG 1648 -112 0
FLAG 1488 -608 0
FLAG 1488 -720 Vref
FLAG 1808 -64 Vref
FLAG 1808 16 0
FLAG 1328 -720 Vin
SYMBOL voltage 1328 -736 R0
WINDOW 123 0 0 Left 0
WINDOW 39 0 0 Left 0
WINDOW 0 -96 20 Left 0
WINDOW 3 -209 104 Left 0
SYMATTR InstName Vin
SYMATTR Value SINE(2.5 2.5 500k)
SYMBOL voltage 1968 -736 R0
WINDOW 0 36 42 Left 0
WINDOW 3 -52 207 VLeft 0
WINDOW 123 0 0 Left 0
WINDOW 39 0 0 Left 0
SYMATTR InstName Vclk
SYMATTR Value PULSE(0 5 0 10p 10p 5n 10n)
SYMBOL voltage 1648 -736 R0
WINDOW 123 0 0 Left 0
WINDOW 39 0 0 Left 0
SYMATTR InstName VDD
SYMATTR Value 5
SYMBOL cap 1632 -192 R0
WINDOW 0 -51 16 Left 0
WINDOW 3 -34 58 Left 0
SYMATTR InstName Cint
SYMATTR Value 1p
SYMBOL voltage 1792 -736 R0
WINDOW 123 0 0 Left 0
WINDOW 39 0 0 Left 0
SYMATTR InstName VCM
SYMATTR Value 2.5
SYMBOL Ideal_clocked_comparator 1808 -272 R0
SYMATTR InstName X4
SYMBOL res 1424 -240 R90
WINDOW 0 0 56 VBottom 0
WINDOW 3 32 56 VTop 0
SYMATTR InstName R2
SYMATTR Value 100k
SYMBOL res 1520 -64 R180
WINDOW 0 36 76 Left 0
WINDOW 3 36 40 Left 0
SYMATTR InstName R3
SYMATTR Value 100k
SYMBOL voltage 1488 -736 R0
WINDOW 123 0 0 Left 0
WINDOW 39 0 0 Left 0
SYMATTR InstName Vref
SYMATTR Value 5
SYMBOL INV 1840 0 M0
SYMATTR InstName X1
TEXT 2104 -624 Left 0 !.tran 0 4u 0 2n uic
TEXT 2112 -656 Left 0 !.options plotwinsize=0
