Version 4
SHEET 1 2804 696
WIRE 1536 -752 1536 -784
WIRE 1680 -752 1680 -784
WIRE 1840 -752 1840 -784
WIRE 1984 -752 1984 -784
WIRE 2160 -752 2160 -784
WIRE 1808 -528 1664 -528
WIRE 2016 -528 1872 -528
WIRE 1264 -400 1232 -400
WIRE 1328 -400 1264 -400
WIRE 1504 -400 1408 -400
WIRE 1584 -400 1504 -400
WIRE 1664 -400 1664 -528
WIRE 1664 -400 1584 -400
WIRE 1696 -400 1664 -400
WIRE 2016 -352 2016 -528
WIRE 2016 -352 1984 -352
WIRE 2176 -352 2016 -352
WIRE 2224 -352 2176 -352
WIRE 1504 -336 1504 -400
WIRE 1696 -304 1632 -304
WIRE 2544 -304 2512 -304
WIRE 2608 -304 2544 -304
WIRE 2672 -304 2608 -304
WIRE 2224 -256 2176 -256
WIRE 2352 -208 2352 -224
WIRE 1856 -128 1856 -144
WIRE 1504 -112 1504 -256
WIRE 1760 -112 1504 -112
WIRE 1824 -112 1760 -112
WIRE 2544 -112 2544 -304
WIRE 2544 -112 1888 -112
WIRE 1856 -64 1856 -96
FLAG 1536 -752 0
FLAG 1264 -400 Vin
FLAG 2160 -752 0
FLAG 2160 -864 clk
FLAG 1840 -752 0
FLAG 1840 -864 VDD
FLAG 1984 -752 0
FLAG 1984 -864 VCM
FLAG 2176 -256 VCM
FLAG 2352 -384 VDD
FLAG 2352 -208 clk
FLAG 2608 -304 Vout
FLAG 2176 -352 Vint
FLAG 1680 -752 0
FLAG 1680 -864 Vref
FLAG 1856 -144 Vref
FLAG 1856 -64 0
FLAG 1632 -304 VCM
FLAG 1536 -864 Vin
FLAG 1584 -400 vsum
FLAG 1760 -112 Vfb
SYMBOL voltage 1536 -880 R0
WINDOW 123 0 0 Left 0
WINDOW 39 0 0 Left 0
WINDOW 0 -96 20 Left 0
WINDOW 3 -209 104 Left 0
SYMATTR InstName Vin
SYMATTR Value SINE(2.5 2.4 500k)
SYMBOL voltage 2160 -880 R0
WINDOW 0 36 42 Left 0
WINDOW 3 -52 207 VLeft 0
WINDOW 123 0 0 Left 0
WINDOW 39 0 0 Left 0
SYMATTR InstName Vclk
SYMATTR Value PULSE(0 5 0 100p 100p 5n 10n)
SYMBOL voltage 1840 -880 R0
WINDOW 123 0 0 Left 0
WINDOW 39 0 0 Left 0
SYMATTR InstName VDD
SYMATTR Value 5
SYMBOL cap 1872 -544 R90
WINDOW 0 0 32 VBottom 0
WINDOW 3 32 32 VTop 0
SYMATTR InstName Cint
SYMATTR Value 1p
SYMBOL voltage 1984 -880 R0
WINDOW 123 0 0 Left 0
WINDOW 39 0 0 Left 0
SYMATTR InstName VCM
SYMATTR Value 2.5
SYMBOL Ideal_clocked_comparator 2272 -304 R0
SYMATTR InstName X4
SYMBOL res 1424 -416 R90
WINDOW 0 0 56 VBottom 0
WINDOW 3 32 56 VTop 0
SYMATTR InstName R2
SYMATTR Value 100k
SYMBOL res 1520 -240 R180
WINDOW 0 36 76 Left 0
WINDOW 3 36 40 Left 0
SYMATTR InstName R3
SYMATTR Value 100k
SYMBOL voltage 1680 -880 R0
WINDOW 123 0 0 Left 0
WINDOW 39 0 0 Left 0
SYMATTR InstName Vref
SYMATTR Value 5
SYMBOL INV 1888 -80 M0
SYMATTR InstName X1
SYMBOL Ideal_op_amp 1744 -352 R0
SYMATTR InstName X2
TEXT 2296 -768 Left 0 !.tran 0 4u 0 2n uic
TEXT 2304 -800 Left 0 !.options plotwinsize=0
