.MODEL CMOSN NMOS (                                LEVEL   = 49
+VERSION = 3.1            TNOM    = 27             TOX     = 7.8E-9
+XJ      = 1E-7           NCH     = 2.2E17         VTH0    = 0.5364928
+K1      = 0.5746259      K2      = 0.0163955      K3      = 72.5629632
+K3B     = -9.7959816     W0      = 5E-5           NLX     = 2.743184E-7
+DVT0W   = 0              DVT1W   = 0              DVT2W   = 0
+DVT0    = 1.5519668      DVT1    = 0.687375       DVT2    = -0.3
+U0      = 415.9643071    UA      = -1.48173E-10   UB      = 1.737705E-18
+UC      = 3.699262E-11   VSAT    = 1.93894E5      A0      = 1.0051937
+AGS     = 0.110946       B0      = 1.062272E-6    B1      = 5E-6
+KETA    = 7.108183E-3    A1      = 0              A2      = 0.3675104
+RDSW    = 1.123868E3     PRWG    = -0.0681291     PRWB    = -0.1004916
+WR      = 1              WINT    = 1.536659E-7    LINT    = 0
+XL      = -5E-8          XW      = 1.5E-7         DWG     = -5.939214E-9
+DWB     = 4.788486E-9    VOFF    = -0.1011582     NFACTOR = 1.4915882
+CIT     = 0              CDSC    = 2.4E-4         CDSCD   = 0
+CDSCB   = 0              ETA0    = 0.1948025      ETAB    = 0.0219595
+DSUB    = 0.6354621      PCLM    = 1.5367752      PDIBLC1 = 1.135967E-3
+PDIBLC2 = 4.758533E-3    PDIBLCB = -1E-3          DROUT   = 0.9564589
+PSCBE1  = 7.200453E8     PSCBE2  = 8.804586E-4    PVAG    = 0
+DELTA   = 0.01           RSH     = 3.4            MOBMOD  = 1
+PRT     = 0              UTE     = -1.5           KT1     = -0.11
+KT1L    = 0              KT2     = 0.022          UA1     = 4.31E-9
+UB1     = -7.61E-18      UC1     = -5.6E-11       AT      = 3.3E4
+WL      = 0              WLN     = 1              WW      = 0
+WWN     = 1              WWL     = 0              LL      = 0
+LLN     = 1              LW      = 0              LWN     = 1
+LWL     = 0              CAPMOD  = 2              XPART   = 0.5
+CGDO    = 3.45E-10       CGSO    = 3.45E-10       CGBO    = 1E-9
+CJ      = 1.00298E-3     PB      = 0.8            MJ      = 0.3367331
+CJSW    = 2.67905E-10    PBSW    = 0.8            MJSW    = 0.1963623
+CJSWG   = 1.82E-10       PBSWG   = 0.8            MJSWG   = 0.1963623
+CF      = 0              PVTH0   = -0.0277587     PRDSW   = -104.2963447
+PK2     = 1.980982E-3    WKETA   = -7.141691E-3   LKETA   = -2.795017E-4    )
*
*
.MODEL CMOSP PMOS (                                LEVEL   = 49
+VERSION = 3.1            TNOM    = 27             TOX     = 7.8E-9
+XJ      = 1E-7           NCH     = 8.52E16        VTH0    = -0.6296401
+K1      = 0.4488977      K2      = -0.0121042     K3      = 54.0974918
+K3B     = -5             W0      = 5.223733E-6    NLX     = 3.035793E-7
+DVT0W   = 0              DVT1W   = 0              DVT2W   = 0
+DVT0    = 1.3816925      DVT1    = 0.5570378      DVT2    = -0.0231065
+U0      = 156.9104129    UA      = 1.021335E-10   UB      = 2.109848E-18
+UC      = -1.38555E-11   VSAT    = 1.497495E5     A0      = 1.0711923
+AGS     = 0.3712142      B0      = 2.7712E-6      B1      = 5E-6
+KETA    = -7.410085E-3   A1      = 7.145172E-4    A2      = 0.3
+RDSW    = 4E3            PRWG    = -0.1414327     PRWB    = 0.1110137
+WR      = 1              WINT    = 1.604274E-7    LINT    = 0
+XL      = -5E-8          XW      = 1.5E-7         DWG     = -1.915644E-8
+DWB     = 7.937978E-9    VOFF    = -0.1333847     NFACTOR = 2
+CIT     = 0              CDSC    = 2.4E-4         CDSCD   = 0
+CDSCB   = 0              ETA0    = 1.915909E-3    ETAB    = 5.991007E-6
+DSUB    = 0.0147271      PCLM    = 3.2874839      PDIBLC1 = 0.0440058
+PDIBLC2 = 2.990151E-3    PDIBLCB = 0.0407606      DROUT   = 0.3127774
+PSCBE1  = 8E10           PSCBE2  = 5.165044E-10   PVAG    = 6.874058E-4
+DELTA   = 0.01           RSH     = 2.6            MOBMOD  = 1
+PRT     = 0              UTE     = -1.5           KT1     = -0.11
+KT1L    = 0              KT2     = 0.022          UA1     = 4.31E-9
+UB1     = -7.61E-18      UC1     = -5.6E-11       AT      = 3.3E4
+WL      = 0              WLN     = 1              WW      = 0
+WWN     = 1              WWL     = 0              LL      = 0
+LLN     = 1              LW      = 0              LWN     = 1
+LWL     = 0              CAPMOD  = 2              XPART   = 0.5
+CGDO    = 2.42E-10       CGSO    = 2.42E-10       CGBO    = 1E-9
+CJ      = 1.423592E-3    PB      = 0.99           MJ      = 0.5524831
+CJSW    = 3.308945E-10   PBSW    = 0.99           MJSW    = 0.4641653
+CJSWG   = 4.42E-11       PBSWG   = 0.99           MJSWG   = 0.4641653
+CF      = 0              PVTH0   = 8.875061E-3    PRDSW   = -45.7964547
+PK2     = 1.498626E-3    WKETA   = 2.400423E-3    LKETA   = -4.35707E-4     )
*