Version 4
SHEET 1 896 680
WIRE -48 96 -80 96
WIRE 64 96 32 96
WIRE 96 96 64 96
WIRE 208 96 176 96
WIRE -80 112 -80 96
WIRE 128 192 128 176
WIRE 64 208 64 96
WIRE 96 208 64 208
WIRE 208 224 208 96
WIRE 208 224 160 224
WIRE 256 224 208 224
WIRE -48 240 -144 240
WIRE 96 240 32 240
WIRE -416 256 -416 240
WIRE -288 256 -288 240
WIRE -144 256 -144 240
WIRE 128 288 128 256
WIRE -416 352 -416 336
WIRE -288 352 -288 336
WIRE -144 352 -144 336
WIRE -416 368 -416 352
FLAG -416 352 0
FLAG 128 176 +V
FLAG -416 240 +V
FLAG 128 288 -V
FLAG -144 352 0
FLAG -80 112 0
FLAG 256 224 out1
FLAG -288 352 0
FLAG -288 240 -V
SYMBOL voltage -416 240 R0
WINDOW 123 0 0 Left 0
WINDOW 39 0 0 Left 0
WINDOW 3 21 96 Left 0
SYMATTR Value 5
SYMATTR InstName V1
SYMBOL voltage -144 240 R0
WINDOW 123 24 132 Left 0
WINDOW 39 0 0 Left 0
WINDOW 3 24 93 Left 0
WINDOW 0 39 45 Left 0
SYMATTR Value SINE(0 .01 1k)
SYMATTR InstName V2
SYMBOL voltage -288 240 R0
WINDOW 123 0 0 Left 0
WINDOW 39 0 0 Left 0
SYMATTR InstName V3
SYMATTR Value -5
SYMBOL res 48 80 R90
WINDOW 0 0 56 VBottom 0
WINDOW 3 32 56 VTop 0
SYMATTR InstName R2
SYMATTR Value 10
SYMBOL res 192 80 R90
WINDOW 0 0 56 VBottom 0
WINDOW 3 32 56 VTop 0
SYMATTR InstName R3
SYMATTR Value 1k
SYMBOL res -64 256 R270
WINDOW 0 32 56 VTop 0
WINDOW 3 0 56 VBottom 0
SYMATTR InstName R4
SYMATTR Value 50
SYMBOL xopamp_st2 128 160 R0
SYMATTR InstName U1
SYMATTR SpiceModel ADA4899
TEXT -432 40 Left 0 !.tran 0 10m 0 10u
TEXT -432 72 Left 0 !.options plotwinsize=0
TEXT -432 -8 Left 0 !.lib Opamp5.lib
TEXT -432 120 Left 0 ;.ac dec100 10 1meg 100
TEXT -48 -8 Left 0 ;Gain=101 Amplifier
