Version 4
SHEET 1 880 680
WIRE -64 16 -416 16
WIRE 80 16 16 16
WIRE 144 16 80 16
WIRE 304 16 224 16
WIRE -416 48 -416 16
WIRE 176 128 176 112
WIRE -416 160 -416 128
WIRE 80 160 80 16
WIRE 128 160 80 160
WIRE 304 160 304 16
WIRE 304 160 256 160
WIRE 128 208 -16 208
WIRE -304 240 -304 224
WIRE -192 240 -192 224
WIRE -16 240 -16 208
WIRE 128 256 80 256
WIRE 304 256 256 256
WIRE 176 304 176 288
WIRE -304 352 -304 320
WIRE -192 352 -192 320
WIRE -16 352 -16 320
WIRE -80 416 -112 416
WIRE 80 416 80 256
WIRE 80 416 0 416
WIRE 144 416 80 416
WIRE 304 416 304 256
WIRE 304 416 224 416
WIRE -112 432 -112 416
FLAG -192 352 0
FLAG -304 352 0
FLAG -416 160 0
FLAG -16 352 0
FLAG -304 224 V+
FLAG -192 224 V-
FLAG 176 112 V+
FLAG 176 304 V-
FLAG -112 432 0
SYMBOL res 128 32 R270
WINDOW 0 32 56 VTop 0
WINDOW 3 0 56 VBottom 0
SYMATTR InstName R1
SYMATTR Value 500
SYMBOL res 128 432 R270
WINDOW 0 32 56 VTop 0
WINDOW 3 0 56 VBottom 0
SYMATTR InstName R2
SYMATTR Value 500
SYMBOL res -80 32 R270
WINDOW 0 32 56 VTop 0
WINDOW 3 0 56 VBottom 0
SYMATTR InstName R3
SYMATTR Value 500
SYMBOL res -96 432 R270
WINDOW 0 32 56 VTop 0
WINDOW 3 0 56 VBottom 0
SYMATTR InstName R4
SYMATTR Value 500
SYMBOL voltage -416 32 R0
WINDOW 123 0 0 Left 0
WINDOW 39 0 0 Left 0
SYMATTR InstName V1
SYMATTR Value PULSE(-1.25 1.25 0 5n 5n 45n 100n)
SYMBOL voltage -16 224 R0
SYMATTR InstName V2
SYMATTR Value 1.25
SYMBOL voltage -304 224 R0
SYMATTR InstName V3
SYMATTR Value 5
SYMBOL voltage -192 224 R0
SYMATTR InstName V4
SYMATTR Value -5
SYMBOL AD8138 160 144 R0
SYMATTR InstName U1
TEXT -584 -56 Left 0 !.tran 0 .5u 0 .1n
TEXT -584 -24 Left 0 !.options plotwinsize=0
