Version 4
SHEET 1 880 680
WIRE 80 32 16 32
WIRE 128 32 80 32
WIRE 240 32 208 32
WIRE 272 32 240 32
WIRE 384 32 352 32
WIRE 416 32 400 32
WIRE 240 64 240 32
WIRE 544 64 448 64
WIRE 400 80 400 32
WIRE 496 80 400 80
WIRE 544 96 544 64
WIRE 16 112 16 32
WIRE 448 112 448 64
WIRE 400 128 400 80
WIRE 400 128 240 128
WIRE 416 128 400 128
WIRE 496 144 496 80
WIRE 496 144 480 144
WIRE 240 160 240 128
WIRE 384 160 384 32
WIRE 416 160 384 160
WIRE 448 192 448 176
WIRE 544 192 544 176
WIRE 544 192 448 192
WIRE 448 208 448 192
WIRE 16 256 16 192
WIRE 80 272 80 32
WIRE 128 272 80 272
WIRE 240 272 240 240
WIRE 240 272 192 272
WIRE 288 272 240 272
WIRE 384 272 384 160
WIRE 384 272 352 272
FLAG 16 256 0
FLAG 416 32 Out
IOPIN 416 32 Out
FLAG 448 208 0
SYMBOL Misc\\signal 16 96 R0
WINDOW 0 3 6 Left 0
WINDOW 3 5 104 Invisible 0
WINDOW 123 6 105 Left 0
WINDOW 39 0 0 Left 0
SYMATTR InstName Vin
SYMATTR Value2 AC 1
SYMBOL Robertugo\\opamp5 448 80 R0
WINDOW 0 -30 63 Left 0
WINDOW 38 15 96 Left 0
SYMATTR InstName U1
SYMATTR SpiceModel Tl072
SYMBOL res 224 16 R90
WINDOW 0 16 101 VBottom 0
WINDOW 3 -12 6 VTop 0
SYMATTR InstName R1
SYMATTR Value 68k
SYMBOL cap 192 256 R90
WINDOW 0 16 60 VBottom 0
WINDOW 3 -12 0 VTop 0
SYMATTR InstName C1
SYMATTR Value 47n
SYMBOL res 368 16 R90
WINDOW 0 16 101 VBottom 0
WINDOW 3 -12 6 VTop 0
SYMATTR InstName R2
SYMATTR Value 68k
SYMBOL cap 352 256 R90
WINDOW 0 16 60 VBottom 0
WINDOW 3 -12 0 VTop 0
SYMATTR InstName C2
SYMATTR Value 47n
SYMBOL res 224 144 R0
SYMATTR InstName R3
SYMATTR Value 34k
SYMBOL cap 224 64 R0
WINDOW 0 -35 32 Left 0
WINDOW 3 -35 54 Left 0
SYMATTR InstName C3
SYMATTR Value 94n
SYMBOL voltage 544 80 R0
WINDOW 0 -21 58 Left 0
WINDOW 3 -33 9 Left 0
SYMATTR InstName Vcc
SYMATTR Value 30
TEXT 398 254 Left 0 !.ac dec 100 1 1e3
