Version 4
SHEET 1 880 680
WIRE 176 48 144 48
WIRE 288 48 240 48
WIRE 368 48 288 48
WIRE 480 48 368 48
WIRE 480 96 480 48
WIRE 368 112 368 48
WIRE 208 144 144 144
WIRE 208 176 208 144
WIRE 368 208 368 176
WIRE 480 208 480 176
WIRE 176 256 144 256
WIRE 288 256 288 48
WIRE 288 256 240 256
FLAG 208 176 0
FLAG 368 208 0
FLAG 480 208 0
SYMBOL diode 176 64 R270
WINDOW 0 32 32 VTop 0
WINDOW 3 0 32 VBottom 0
SYMATTR InstName D1
SYMATTR Value MURS320
SYMBOL diode 176 272 R270
WINDOW 0 32 32 VTop 0
WINDOW 3 0 32 VBottom 0
SYMATTR InstName D2
SYMATTR Value MURS320
SYMBOL polcap 352 112 R0
WINDOW 3 24 64 Left 0
SYMATTR Value 1500µ
SYMATTR InstName C1
SYMATTR Description Capacitor
SYMATTR Type cap
SYMATTR SpiceLine V=35 Irms=2.36 Rser=0.024 Lser=0 mfg="Nichicon" pn="UPL1V152MRH" type="Al electrolytic"
SYMBOL res 464 80 R0
SYMATTR InstName R1
SYMATTR Value 100
SYMBOL transformer_sub 160 144 R0
SYMATTR InstName U1
TEXT 208 344 Left 0 !.include transformer1.sub
TEXT 0 352 Left 0 !.tran .2
