*****
*SRC=L201E3;L201E3;TRIACS;TECCOR;200V 1A
*SYM=TRIAC
.SUBCKT L201E3    1  2  3
*     TERMINALS: MT2 G MT1
QN1  5 4 3  NOUT OFF
QN2 11 6 7  NOUT OFF
QP1 6 11 3  POUT OFF
QP2  4 5 7  POUT OFF
DF  4  5  DZ OFF
DR  6 11  DZ OFF
RF  4 6  200MEG
RT2 1 7  0.528
RH  7 6  750
RGP 8 3  545
RG  2 8  264
RS  8 4  526
DN  9 2  DIN OFF
RN  9 3  278
GNN  6 7 9 3 3.88M
GNP  4 5 9 3 5.12M
DP 2 10  DIP OFF
RP 10 3  162
GP  7 6 10 3 2.61M
.MODEL DIN  D (IS=5.35F)
.MODEL DIP  D (IS=5.35F N=1.19)
.MODEL DZ   D (IS=5.35F N=1.5 IBV=1U BV=200)
.MODEL POUT PNP (IS=5.35F BF=5 CJE=117P TF=38.2U)
.MODEL NOUT NPN (IS=5.35F BF=20 CJE=117P CJC=23.4P TF=2.55U)
.ENDS
*****
*SRC=L401E3;L401E3;TRIACS;TECCOR;400V 1A
*SYM=TRIAC
.SUBCKT L401E3    1  2  3
*     TERMINALS: MT2 G MT1
QN1  5 4 3  NOUT OFF
QN2 11 6 7  NOUT OFF
QP1 6 11 3  POUT OFF
QP2  4 5 7  POUT OFF
DF  4  5  DZ OFF
DR  6 11  DZ OFF
RF  4 6  400MEG
RT2 1 7  0.528
RH  7 6  750
RGP 8 3  545
RG  2 8  264
RS  8 4  526
DN  9 2  DIN OFF
RN  9 3  278
GNN  6 7 9 3 3.88M
GNP  4 5 9 3 5.12M
DP 2 10  DIP OFF
RP 10 3  162
GP  7 6 10 3 2.61M
.MODEL DIN  D (IS=5.35F)
.MODEL DIP  D (IS=5.35F N=1.19)
.MODEL DZ   D (IS=5.35F N=1.5 IBV=1U BV=400)
.MODEL POUT PNP (IS=5.35F BF=5 CJE=117P TF=38.2U)
.MODEL NOUT NPN (IS=5.35F BF=20 CJE=117P CJC=23.4P TF=2.55U)
.ENDS
*****
*SRC=L601E3;L601E3;TRIACS;TECCOR;600V 1A
*SYM=TRIAC
.SUBCKT L601E3    1  2  3
*     TERMINALS: MT2 G MT1
QN1  5 4 3  NOUT OFF
QN2 11 6 7  NOUT OFF
QP1 6 11 3  POUT OFF
QP2  4 5 7  POUT OFF
DF  4  5  DZ OFF
DR  6 11  DZ OFF
RF  4 6  600MEG
RT2 1 7  0.528
RH  7 6  750
RGP 8 3  545
RG  2 8  264
RS  8 4  526
DN  9 2  DIN OFF
RN  9 3  278
GNN  6 7 9 3 3.88M
GNP  4 5 9 3 5.12M
DP 2 10  DIP OFF
RP 10 3  162
GP  7 6 10 3 2.61M
.MODEL DIN  D (IS=5.35F)
.MODEL DIP  D (IS=5.35F N=1.19)
.MODEL DZ   D (IS=5.35F N=1.5 IBV=1U BV=600)
.MODEL POUT PNP (IS=5.35F BF=5 CJE=235P TF=38.2U)
.MODEL NOUT NPN (IS=5.35F BF=20 CJE=235P CJC=46.9P TF=2.55U)
.ENDS
*****
*SRC=L201E5;L201E5;TRIACS;TECCOR;200V 1A
*SYM=TRIAC
.SUBCKT L201E5    1  2  3
*     TERMINALS: MT2 G MT1
QN1  5 4 3  NOUT OFF
QN2 11 6 7  NOUT OFF
QP1 6 11 3  POUT OFF
QP2  4 5 7  POUT OFF
DF  4  5  DZ OFF
DR  6 11  DZ OFF
RF  4 6  200MEG
RT2 1 7  0.528
RH  7 6  750
RGP 8 3  545
RG  2 8  264
RS  8 4  526
DN  9 2  DIN OFF
RN  9 3  278
GNN  6 7 9 3 3.88M
GNP  4 5 9 3 5.12M
DP 2 10  DIP OFF
RP 10 3  162
GP  7 6 10 3 2.61M
.MODEL DIN  D (IS=5.35F)
.MODEL DIP  D (IS=5.35F N=1.19)
.MODEL DZ   D (IS=5.35F N=1.5 IBV=1U BV=200)
.MODEL POUT PNP (IS=5.35F BF=5 CJE=117P TF=43.4U)
.MODEL NOUT NPN (IS=5.35F BF=20 CJE=117P CJC=23.4P TF=2.89U)
.ENDS
*****
*SRC=L401E5;L401E5;TRIACS;TECCOR;400V 1A
*SYM=TRIAC
.SUBCKT L401E5    1  2  3
*     TERMINALS: MT2 G MT1
QN1  5 4 3  NOUT OFF
QN2 11 6 7  NOUT OFF
QP1 6 11 3  POUT OFF
QP2  4 5 7  POUT OFF
DF  4  5  DZ OFF
DR  6 11  DZ OFF
RF  4 6  400MEG
RT2 1 7  0.528
RH  7 6  750
RGP 8 3  545
RG  2 8  264
RS  8 4  526
DN  9 2  DIN OFF
RN  9 3  278
GNN  6 7 9 3 3.88M
GNP  4 5 9 3 5.12M
DP 2 10  DIP OFF
RP 10 3  162
GP  7 6 10 3 2.61M
.MODEL DIN  D (IS=5.35F)
.MODEL DIP  D (IS=5.35F N=1.19)
.MODEL DZ   D (IS=5.35F N=1.5 IBV=1U BV=400)
.MODEL POUT PNP (IS=5.35F BF=5 CJE=117P TF=43.4U)
.MODEL NOUT NPN (IS=5.35F BF=20 CJE=117P CJC=23.4P TF=2.89U)
.ENDS
*****
*SRC=L601E5;L601E5;TRIACS;TECCOR;600V 1A
*SYM=TRIAC
.SUBCKT L601E5    1  2  3
*     TERMINALS: MT2 G MT1
QN1  5 4 3  NOUT OFF
QN2 11 6 7  NOUT OFF
QP1 6 11 3  POUT OFF
QP2  4 5 7  POUT OFF
DF  4  5  DZ OFF
DR  6 11  DZ OFF
RF  4 6  600MEG
RT2 1 7  0.528
RH  7 6  750
RGP 8 3  545
RG  2 8  264
RS  8 4  526
DN  9 2  DIN OFF
RN  9 3  278
GNN  6 7 9 3 3.88M
GNP  4 5 9 3 5.12M
DP 2 10  DIP OFF
RP 10 3  162
GP  7 6 10 3 2.61M
.MODEL DIN  D (IS=5.35F)
.MODEL DIP  D (IS=5.35F N=1.19)
.MODEL DZ   D (IS=5.35F N=1.5 IBV=1U BV=600)
.MODEL POUT PNP (IS=5.35F BF=5 CJE=235P TF=43.4U)
.MODEL NOUT NPN (IS=5.35F BF=20 CJE=235P CJC=46.9P TF=2.89U)
.ENDS
*****
*SRC=L201E6;L201E6;TRIACS;TECCOR;200V 1A
*SYM=TRIAC
.SUBCKT L201E6    1  2  3
*     TERMINALS: MT2 G MT1
QN1  5 4 3  NOUT OFF
QN2 11 6 7  NOUT OFF
QP1 6 11 3  POUT OFF
QP2  4 5 7  POUT OFF
DF  4  5  DZ OFF
DR  6 11  DZ OFF
RF  4 6  200MEG
RT2 1 7  0.528
RH  7 6  750
RGP 8 3  545
RG  2 8  264
RS  8 4  526
DN  9 2  DIN OFF
RN  9 3  278
GNN  6 7 9 3 3.88M
GNP  4 5 9 3 5.12M
DP 2 10  DIP OFF
RP 10 3  162
GP  7 6 10 3 2.61M
.MODEL DIN  D (IS=5.35F)
.MODEL DIP  D (IS=5.35F N=1.19)
.MODEL DZ   D (IS=5.35F N=1.5 IBV=1U BV=200)
.MODEL POUT PNP (IS=5.35F BF=5 CJE=78.2P TF=63.8U)
.MODEL NOUT NPN (IS=5.35F BF=20 CJE=78.2P CJC=15.6P TF=4.25U)
.ENDS
*****
*SRC=L401E6;L401E6;TRIACS;TECCOR;400V 1A
*SYM=TRIAC
.SUBCKT L401E6    1  2  3
*     TERMINALS: MT2 G MT1
QN1  5 4 3  NOUT OFF
QN2 11 6 7  NOUT OFF
QP1 6 11 3  POUT OFF
QP2  4 5 7  POUT OFF
DF  4  5  DZ OFF
DR  6 11  DZ OFF
RF  4 6  400MEG
RT2 1 7  0.528
RH  7 6  750
RGP 8 3  545
RG  2 8  264
RS  8 4  526
DN  9 2  DIN OFF
RN  9 3  278
GNN  6 7 9 3 3.88M
GNP  4 5 9 3 5.12M
DP 2 10  DIP OFF
RP 10 3  162
GP  7 6 10 3 2.61M
.MODEL DIN  D (IS=5.35F)
.MODEL DIP  D (IS=5.35F N=1.19)
.MODEL DZ   D (IS=5.35F N=1.5 IBV=1U BV=400)
.MODEL POUT PNP (IS=5.35F BF=5 CJE=78.2P TF=63.8U)
.MODEL NOUT NPN (IS=5.35F BF=20 CJE=78.2P CJC=15.6P TF=4.25U)
.ENDS
*****
*SRC=L601E6;L601E6;TRIACS;TECCOR;600V 1A
*SYM=TRIAC
.SUBCKT L601E6    1  2  3
*     TERMINALS: MT2 G MT1
QN1  5 4 3  NOUT OFF
QN2 11 6 7  NOUT OFF
QP1 6 11 3  POUT OFF
QP2  4 5 7  POUT OFF
DF  4  5  DZ OFF
DR  6 11  DZ OFF
RF  4 6  600MEG
RT2 1 7  0.528
RH  7 6  750
RGP 8 3  545
RG  2 8  264
RS  8 4  526
DN  9 2  DIN OFF
RN  9 3  278
GNN  6 7 9 3 3.88M
GNP  4 5 9 3 5.12M
DP 2 10  DIP OFF
RP 10 3  162
GP  7 6 10 3 2.61M
.MODEL DIN  D (IS=5.35F)
.MODEL DIP  D (IS=5.35F N=1.19)
.MODEL DZ   D (IS=5.35F N=1.5 IBV=1U BV=600)
.MODEL POUT PNP (IS=5.35F BF=5 CJE=117P TF=63.8U)
.MODEL NOUT NPN (IS=5.35F BF=20 CJE=117P CJC=23.4P TF=4.25U)
.ENDS
*****
*SRC=L201E8;L201E8;TRIACS;TECCOR;200V 1A
*SYM=TRIAC
.SUBCKT L201E8    1  2  3
*     TERMINALS: MT2 G MT1
QN1  5 4 3  NOUT OFF
QN2 11 6 7  NOUT OFF
QP1 6 11 3  POUT OFF
QP2  4 5 7  POUT OFF
DF  4  5  DZ OFF
DR  6 11  DZ OFF
RF  4 6  200MEG
RT2 1 7  0.528
RH  7 6  750
RGP 8 3  545
RG  2 8  264
RS  8 4  526
DN  9 2  DIN OFF
RN  9 3  278
GNN  6 7 9 3 3.88M
GNP  4 5 9 3 5.12M
DP 2 10  DIP OFF
RP 10 3  162
GP  7 6 10 3 2.61M
.MODEL DIN  D (IS=5.35F)
.MODEL DIP  D (IS=5.35F N=1.19)
.MODEL DZ   D (IS=5.35F N=1.5 IBV=1U BV=200)
.MODEL POUT PNP (IS=5.35F BF=5 CJE=67P TF=76.5U)
.MODEL NOUT NPN (IS=5.35F BF=20 CJE=67P CJC=13.4P TF=5.1U)
.ENDS
*****
*SRC=L401E8;L401E8;TRIACS;TECCOR;400V 1A
*SYM=TRIAC
.SUBCKT L401E8    1  2  3
*     TERMINALS: MT2 G MT1
QN1  5 4 3  NOUT OFF
QN2 11 6 7  NOUT OFF
QP1 6 11 3  POUT OFF
QP2  4 5 7  POUT OFF
DF  4  5  DZ OFF
DR  6 11  DZ OFF
RF  4 6  400MEG
RT2 1 7  0.528
RH  7 6  750
RGP 8 3  545
RG  2 8  264
RS  8 4  526
DN  9 2  DIN OFF
RN  9 3  278
GNN  6 7 9 3 3.88M
GNP  4 5 9 3 5.12M
DP 2 10  DIP OFF
RP 10 3  162
GP  7 6 10 3 2.61M
.MODEL DIN  D (IS=5.35F)
.MODEL DIP  D (IS=5.35F N=1.19)
.MODEL DZ   D (IS=5.35F N=1.5 IBV=1U BV=400)
.MODEL POUT PNP (IS=5.35F BF=5 CJE=67P TF=76.5U)
.MODEL NOUT NPN (IS=5.35F BF=20 CJE=67P CJC=13.4P TF=5.1U)
.ENDS
*****
*SRC=L601E8;L601E8;TRIACS;TECCOR;600V 1A
*SYM=TRIAC
.SUBCKT L601E8    1  2  3
*     TERMINALS: MT2 G MT1
QN1  5 4 3  NOUT OFF
QN2 11 6 7  NOUT OFF
QP1 6 11 3  POUT OFF
QP2  4 5 7  POUT OFF
DF  4  5  DZ OFF
DR  6 11  DZ OFF
RF  4 6  600MEG
RT2 1 7  0.528
RH  7 6  750
RGP 8 3  545
RG  2 8  264
RS  8 4  526
DN  9 2  DIN OFF
RN  9 3  278
GNN  6 7 9 3 3.88M
GNP  4 5 9 3 5.12M
DP 2 10  DIP OFF
RP 10 3  162
GP  7 6 10 3 2.61M
.MODEL DIN  D (IS=5.35F)
.MODEL DIP  D (IS=5.35F N=1.19)
.MODEL DZ   D (IS=5.35F N=1.5 IBV=1U BV=600)
.MODEL POUT PNP (IS=5.35F BF=5 CJE=93.8P TF=76.5U)
.MODEL NOUT NPN (IS=5.35F BF=20 CJE=93.8P CJC=18.8P TF=5.1U)
.ENDS
*****
*SRC=L2004L3;L2004L3;TRIACS;TECCOR;200V 4A
*SYM=TRIAC
.SUBCKT L2004L3   1  2  3
*     TERMINALS: MT2 G MT1
QN1  5 4 3  NOUT OFF
QN2 11 6 7  NOUT OFF
QP1 6 11 3  POUT OFF
QP2  4 5 7  POUT OFF
DF  4  5  DZ OFF
DR  6 11  DZ OFF
RF  4 6  50MEG
RT2 1 7  0.132
RH  7 6  187
RGP 8 3  136
RG  2 8  65.9
RS  8 4  131
DN  9 2  DIN OFF
RN  9 3  69.5
GNN  6 7 9 3 15.5M
GNP  4 5 9 3 20.5M
DP 2 10  DIP OFF
RP 10 3  40.5
GP  7 6 10 3 10.4M
.MODEL DIN  D (IS=21.4F)
.MODEL DIP  D (IS=21.4F N=1.19)
.MODEL DZ   D (IS=21.4F N=1.5 IBV=4U BV=200)
.MODEL POUT PNP (IS=21.4F BF=5 CJE=375P TF=38.2U)
.MODEL NOUT NPN (IS=21.4F BF=20 CJE=375P CJC=75P TF=2.55U)
.ENDS
*****
*SRC=L4004L3;L4004L3;TRIACS;TECCOR;400V 4A
*SYM=TRIAC
.SUBCKT L4004L3   1  2  3
*     TERMINALS: MT2 G MT1
QN1  5 4 3  NOUT OFF
QN2 11 6 7  NOUT OFF
QP1 6 11 3  POUT OFF
QP2  4 5 7  POUT OFF
DF  4  5  DZ OFF
DR  6 11  DZ OFF
RF  4 6  100MEG
RT2 1 7  0.132
RH  7 6  187
RGP 8 3  136
RG  2 8  65.9
RS  8 4  131
DN  9 2  DIN OFF
RN  9 3  69.5
GNN  6 7 9 3 15.5M
GNP  4 5 9 3 20.5M
DP 2 10  DIP OFF
RP 10 3  40.5
GP  7 6 10 3 10.4M
.MODEL DIN  D (IS=21.4F)
.MODEL DIP  D (IS=21.4F N=1.19)
.MODEL DZ   D (IS=21.4F N=1.5 IBV=4U BV=400)
.MODEL POUT PNP (IS=21.4F BF=5 CJE=375P TF=38.2U)
.MODEL NOUT NPN (IS=21.4F BF=20 CJE=375P CJC=75P TF=2.55U)
.ENDS
*****
*SRC=L6004L3;L6004L3;TRIACS;TECCOR;600V 4A
*SYM=TRIAC
.SUBCKT L6004L3   1  2  3
*     TERMINALS: MT2 G MT1
QN1  5 4 3  NOUT OFF
QN2 11 6 7  NOUT OFF
QP1 6 11 3  POUT OFF
QP2  4 5 7  POUT OFF
DF  4  5  DZ OFF
DR  6 11  DZ OFF
RF  4 6  150MEG
RT2 1 7  0.132
RH  7 6  187
RGP 8 3  136
RG  2 8  65.9
RS  8 4  131
DN  9 2  DIN OFF
RN  9 3  69.5
GNN  6 7 9 3 15.5M
GNP  4 5 9 3 20.5M
DP 2 10  DIP OFF
RP 10 3  40.5
GP  7 6 10 3 10.4M
.MODEL DIN  D (IS=21.4F)
.MODEL DIP  D (IS=21.4F N=1.19)
.MODEL DZ   D (IS=21.4F N=1.5 IBV=4U BV=600)
.MODEL POUT PNP (IS=21.4F BF=5 CJE=625P TF=38.2U)
.MODEL NOUT NPN (IS=21.4F BF=20 CJE=625P CJC=125P TF=2.55U)
.ENDS
*****
*SRC=L2004L5;L2004L5;TRIACS;TECCOR;200V 4A
*SYM=TRIAC
.SUBCKT L2004L5   1  2  3
*     TERMINALS: MT2 G MT1
QN1  5 4 3  NOUT OFF
QN2 11 6 7  NOUT OFF
QP1 6 11 3  POUT OFF
QP2  4 5 7  POUT OFF
DF  4  5  DZ OFF
DR  6 11  DZ OFF
RF  4 6  50MEG
RT2 1 7  0.132
RH  7 6  187
RGP 8 3  136
RG  2 8  65.9
RS  8 4  131
DN  9 2  DIN OFF
RN  9 3  69.5
GNN  6 7 9 3 15.5M
GNP  4 5 9 3 20.5M
DP 2 10  DIP OFF
RP 10 3  40.5
GP  7 6 10 3 10.4M
.MODEL DIN  D (IS=21.4F)
.MODEL DIP  D (IS=21.4F N=1.19)
.MODEL DZ   D (IS=21.4F N=1.5 IBV=4U BV=200)
.MODEL POUT PNP (IS=21.4F BF=5 CJE=375P TF=43.4U)
.MODEL NOUT NPN (IS=21.4F BF=20 CJE=375P CJC=75P TF=2.89U)
.ENDS
*****
*SRC=L4004L5;L4004L5;TRIACS;TECCOR;400V 4A
*SYM=TRIAC
.SUBCKT L4004L5   1  2  3
*     TERMINALS: MT2 G MT1
QN1  5 4 3  NOUT OFF
QN2 11 6 7  NOUT OFF
QP1 6 11 3  POUT OFF
QP2  4 5 7  POUT OFF
DF  4  5  DZ OFF
DR  6 11  DZ OFF
RF  4 6  100MEG
RT2 1 7  0.132
RH  7 6  187
RGP 8 3  136
RG  2 8  65.9
RS  8 4  131
DN  9 2  DIN OFF
RN  9 3  69.5
GNN  6 7 9 3 15.5M
GNP  4 5 9 3 20.5M
DP 2 10  DIP OFF
RP 10 3  40.5
GP  7 6 10 3 10.4M
.MODEL DIN  D (IS=21.4F)
.MODEL DIP  D (IS=21.4F N=1.19)
.MODEL DZ   D (IS=21.4F N=1.5 IBV=4U BV=400)
.MODEL POUT PNP (IS=21.4F BF=5 CJE=375P TF=43.4U)
.MODEL NOUT NPN (IS=21.4F BF=20 CJE=375P CJC=75P TF=2.89U)
.ENDS
*****
*SRC=L6004L5;L6004L5;TRIACS;TECCOR;600V 4A
*SYM=TRIAC
.SUBCKT L6004L5   1  2  3
*     TERMINALS: MT2 G MT1
QN1  5 4 3  NOUT OFF
QN2 11 6 7  NOUT OFF
QP1 6 11 3  POUT OFF
QP2  4 5 7  POUT OFF
DF  4  5  DZ OFF
DR  6 11  DZ OFF
RF  4 6  150MEG
RT2 1 7  0.132
RH  7 6  187
RGP 8 3  136
RG  2 8  65.9
RS  8 4  131
DN  9 2  DIN OFF
RN  9 3  69.5
GNN  6 7 9 3 15.5M
GNP  4 5 9 3 20.5M
DP 2 10  DIP OFF
RP 10 3  40.5
GP  7 6 10 3 10.4M
.MODEL DIN  D (IS=21.4F)
.MODEL DIP  D (IS=21.4F N=1.19)
.MODEL DZ   D (IS=21.4F N=1.5 IBV=4U BV=600)
.MODEL POUT PNP (IS=21.4F BF=5 CJE=938P TF=43.4U)
.MODEL NOUT NPN (IS=21.4F BF=20 CJE=938P CJC=188P TF=2.89U)
.ENDS
*****
*SRC=L2004L6;L2004L6;TRIACS;TECCOR;200V 4A
*SYM=TRIAC
.SUBCKT L2004L6   1  2  3
*     TERMINALS: MT2 G MT1
QN1  5 4 3  NOUT OFF
QN2 11 6 7  NOUT OFF
QP1 6 11 3  POUT OFF
QP2  4 5 7  POUT OFF
DF  4  5  DZ OFF
DR  6 11  DZ OFF
RF  4 6  50MEG
RT2 1 7  0.132
RH  7 6  187
RGP 8 3  136
RG  2 8  65.9
RS  8 4  131
DN  9 2  DIN OFF
RN  9 3  69.5
GNN  6 7 9 3 15.5M
GNP  4 5 9 3 20.5M
DP 2 10  DIP OFF
RP 10 3  40.5
GP  7 6 10 3 10.4M
.MODEL DIN  D (IS=21.4F)
.MODEL DIP  D (IS=21.4F N=1.19)
.MODEL DZ   D (IS=21.4F N=1.5 IBV=4U BV=200)
.MODEL POUT PNP (IS=21.4F BF=5 CJE=313P TF=63.8U)
.MODEL NOUT NPN (IS=21.4F BF=20 CJE=313P CJC=62.5P TF=4.25U)
.ENDS
*****
*SRC=L4004L6;L4004L6;TRIACS;TECCOR;400V 4A
*SYM=TRIAC
.SUBCKT L4004L6   1  2  3
*     TERMINALS: MT2 G MT1
QN1  5 4 3  NOUT OFF
QN2 11 6 7  NOUT OFF
QP1 6 11 3  POUT OFF
QP2  4 5 7  POUT OFF
DF  4  5  DZ OFF
DR  6 11  DZ OFF
RF  4 6  100MEG
RT2 1 7  0.132
RH  7 6  187
RGP 8 3  136
RG  2 8  65.9
RS  8 4  131
DN  9 2  DIN OFF
RN  9 3  69.5
GNN  6 7 9 3 15.5M
GNP  4 5 9 3 20.5M
DP 2 10  DIP OFF
RP 10 3  40.5
GP  7 6 10 3 10.4M
.MODEL DIN  D (IS=21.4F)
.MODEL DIP  D (IS=21.4F N=1.19)
.MODEL DZ   D (IS=21.4F N=1.5 IBV=4U BV=400)
.MODEL POUT PNP (IS=21.4F BF=5 CJE=313P TF=63.8U)
.MODEL NOUT NPN (IS=21.4F BF=20 CJE=313P CJC=62.5P TF=4.25U)
.ENDS
*****
*SRC=L6004L6;L6004L6;TRIACS;TECCOR;400V 4A
*SYM=TRIAC
.SUBCKT L6004L6   1  2  3
*     TERMINALS: MT2 G MT1
QN1  5 4 3  NOUT OFF
QN2 11 6 7  NOUT OFF
QP1 6 11 3  POUT OFF
QP2  4 5 7  POUT OFF
DF  4  5  DZ OFF
DR  6 11  DZ OFF
RF  4 6  100MEG
RT2 1 7  0.132
RH  7 6  187
RGP 8 3  136
RG  2 8  65.9
RS  8 4  131
DN  9 2  DIN OFF
RN  9 3  69.5
GNN  6 7 9 3 15.5M
GNP  4 5 9 3 20.5M
DP 2 10  DIP OFF
RP 10 3  40.5
GP  7 6 10 3 10.4M
.MODEL DIN  D (IS=21.4F)
.MODEL DIP  D (IS=21.4F N=1.19)
.MODEL DZ   D (IS=21.4F N=1.5 IBV=4U BV=400)
.MODEL POUT PNP (IS=21.4F BF=5 CJE=469P TF=63.8U)
.MODEL NOUT NPN (IS=21.4F BF=20 CJE=469P CJC=93.8P TF=4.25U)
.ENDS
*****
*SRC=L2004L8;L2004L8;TRIACS;TECCOR;200V 4A
*SYM=TRIAC
.SUBCKT L2004L8   1  2  3
*     TERMINALS: MT2 G MT1
QN1  5 4 3  NOUT OFF
QN2 11 6 7  NOUT OFF
QP1 6 11 3  POUT OFF
QP2  4 5 7  POUT OFF
DF  4  5  DZ OFF
DR  6 11  DZ OFF
RF  4 6  20MEG
RT2 1 7  0.123
RH  7 6  35
RGP 8 3  60
RG  2 8  29
RS  8 4  6
DN  9 2  DIN OFF
RN  9 3  30.6
GNN  6 7 9 3 83M
GNP  4 5 9 3 0.141
DP 2 10  DIP OFF
RP 10 3  17.8
GP  7 6 10 3 55.9M
.MODEL DIN  D (IS=115F)
.MODEL DIP  D (IS=115F N=1.19)
.MODEL DZ   D (IS=115F N=1.5 IBV=10U BV=200)
.MODEL POUT PNP (IS=115F BF=5 CJE=1.44N TF=76.5U)
.MODEL NOUT NPN (IS=115F BF=20 CJE=1.44N CJC=287P TF=5.1U)
.ENDS
*****
*SRC=L4004L8;L4004L8;TRIACS;TECCOR;400V 4A
*SYM=TRIAC
.SUBCKT L4004L8   1  2  3
*     TERMINALS: MT2 G MT1
QN1  5 4 3  NOUT OFF
QN2 11 6 7  NOUT OFF
QP1 6 11 3  POUT OFF
QP2  4 5 7  POUT OFF
DF  4  5  DZ OFF
DR  6 11  DZ OFF
RF  4 6  40MEG
RT2 1 7  0.123
RH  7 6  35
RGP 8 3  60
RG  2 8  29
RS  8 4  6
DN  9 2  DIN OFF
RN  9 3  30.6
GNN  6 7 9 3 83M
GNP  4 5 9 3 0.141
DP 2 10  DIP OFF
RP 10 3  17.8
GP  7 6 10 3 55.9M
.MODEL DIN  D (IS=115F)
.MODEL DIP  D (IS=115F N=1.19)
.MODEL DZ   D (IS=115F N=1.5 IBV=10U BV=400)
.MODEL POUT PNP (IS=115F BF=5 CJE=1.44N TF=76.5U)
.MODEL NOUT NPN (IS=115F BF=20 CJE=1.44N CJC=287P TF=5.1U)
.ENDS
*****
*SRC=L6004L8;L6004L8;TRIACS;TECCOR;600V 4A
*SYM=TRIAC
.SUBCKT L6004L8   1  2  3
*     TERMINALS: MT2 G MT1
QN1  5 4 3  NOUT OFF
QN2 11 6 7  NOUT OFF
QP1 6 11 3  POUT OFF
QP2  4 5 7  POUT OFF
DF  4  5  DZ OFF
DR  6 11  DZ OFF
RF  4 6  60MEG
RT2 1 7  0.123
RH  7 6  35
RGP 8 3  60
RG  2 8  29
RS  8 4  6
DN  9 2  DIN OFF
RN  9 3  30.6
GNN  6 7 9 3 83M
GNP  4 5 9 3 0.141
DP 2 10  DIP OFF
RP 10 3  17.8
GP  7 6 10 3 55.9M
.MODEL DIN  D (IS=115F)
.MODEL DIP  D (IS=115F N=1.19)
.MODEL DZ   D (IS=115F N=1.5 IBV=10U BV=600)
.MODEL POUT PNP (IS=115F BF=5 CJE=2.01N TF=76.5U)
.MODEL NOUT NPN (IS=115F BF=20 CJE=2.01N CJC=402P TF=5.1U)
.ENDS
*****
*SRC=L2006L5;L2006L5;TRIACS;TECCOR;200V 6A
*SYM=TRIAC
.SUBCKT L2006L5   1  2  3
*     TERMINALS: MT2 G MT1
QN1  5 4 3  NOUT OFF
QN2 11 6 7  NOUT OFF
QP1 6 11 3  POUT OFF
QP2  4 5 7  POUT OFF
DF  4  5  DZ OFF
DR  6 11  DZ OFF
RF  4 6  10MEG
RT2 1 7  82.2M
RH  7 6  52.5
RGP 8 3  120
RG  2 8  58
RS  8 4  12
DN  9 2  DIN OFF
RN  9 3  61.2
GNN  6 7 9 3 55.4M
GNP  4 5 9 3 70.5M
DP 2 10  DIP OFF
RP 10 3  35.6
GP  7 6 10 3 37.3M
.MODEL DIN  D (IS=76.4F)
.MODEL DIP  D (IS=76.4F N=1.19)
.MODEL DZ   D (IS=76.4F N=1.5 IBV=20U BV=200)
.MODEL POUT PNP (IS=76.4F BF=5 CJE=838P TF=43.4U)
.MODEL NOUT NPN (IS=76.4F BF=20 CJE=838P CJC=168P TF=2.89U)
.ENDS
*****
*SRC=L4006L5;L4006L5;TRIACS;TECCOR;400V 6A
*SYM=TRIAC
.SUBCKT L4006L5   1  2  3
*     TERMINALS: MT2 G MT1
QN1  5 4 3  NOUT OFF
QN2 11 6 7  NOUT OFF
QP1 6 11 3  POUT OFF
QP2  4 5 7  POUT OFF
DF  4  5  DZ OFF
DR  6 11  DZ OFF
RF  4 6  20MEG
RT2 1 7  82.2M
RH  7 6  52.5
RGP 8 3  120
RG  2 8  58
RS  8 4  12
DN  9 2  DIN OFF
RN  9 3  61.2
GNN  6 7 9 3 55.4M
GNP  4 5 9 3 70.5M
DP 2 10  DIP OFF
RP 10 3  35.6
GP  7 6 10 3 37.3M
.MODEL DIN  D (IS=76.4F)
.MODEL DIP  D (IS=76.4F N=1.19)
.MODEL DZ   D (IS=76.4F N=1.5 IBV=20U BV=400)
.MODEL POUT PNP (IS=76.4F BF=5 CJE=1.12N TF=43.4U)
.MODEL NOUT NPN (IS=76.4F BF=20 CJE=1.12N CJC=223P TF=2.89U)
.ENDS
*****
*SRC=L6006L5;L6006L5;TRIACS;TECCOR;600V 6A
*SYM=TRIAC
.SUBCKT L6006L5   1  2  3
*     TERMINALS: MT2 G MT1
QN1  5 4 3  NOUT OFF
QN2 11 6 7  NOUT OFF
QP1 6 11 3  POUT OFF
QP2  4 5 7  POUT OFF
DF  4  5  DZ OFF
DR  6 11  DZ OFF
RF  4 6  30MEG
RT2 1 7  82.2M
RH  7 6  52.5
RGP 8 3  120
RG  2 8  58
RS  8 4  12
DN  9 2  DIN OFF
RN  9 3  61.2
GNN  6 7 9 3 55.4M
GNP  4 5 9 3 70.5M
DP 2 10  DIP OFF
RP 10 3  35.6
GP  7 6 10 3 37.3M
.MODEL DIN  D (IS=76.4F)
.MODEL DIP  D (IS=76.4F N=1.19)
.MODEL DZ   D (IS=76.4F N=1.5 IBV=20U BV=600)
.MODEL POUT PNP (IS=76.4F BF=5 CJE=1.68N TF=43.4U)
.MODEL NOUT NPN (IS=76.4F BF=20 CJE=1.68N CJC=335P TF=2.89U)
.ENDS
*****
*SRC=L2006L6;L2006L6;TRIACS;TECCOR;200V 6A
*SYM=TRIAC
.SUBCKT L2006L6   1  2  3
*     TERMINALS: MT2 G MT1
QN1  5 4 3  NOUT OFF
QN2 11 6 7  NOUT OFF
QP1 6 11 3  POUT OFF
QP2  4 5 7  POUT OFF
DF  4  5  DZ OFF
DR  6 11  DZ OFF
RF  4 6  10MEG
RT2 1 7  82.2M
RH  7 6  52.5
RGP 8 3  120
RG  2 8  58
RS  8 4  12
DN  9 2  DIN OFF
RN  9 3  61.2
GNN  6 7 9 3 55.4M
GNP  4 5 9 3 70.5M
DP 2 10  DIP OFF
RP 10 3  35.6
GP  7 6 10 3 37.3M
.MODEL DIN  D (IS=76.4F)
.MODEL DIP  D (IS=76.4F N=1.19)
.MODEL DZ   D (IS=76.4F N=1.5 IBV=20U BV=200)
.MODEL POUT PNP (IS=76.4F BF=5 CJE=838P TF=63.8U)
.MODEL NOUT NPN (IS=76.4F BF=20 CJE=838P CJC=168P TF=4.25U)
.ENDS
*****
*SRC=L4006L6;L4006L6;TRIACS;TECCOR;400V 6A
*SYM=TRIAC
.SUBCKT L4006L6   1  2  3
*     TERMINALS: MT2 G MT1
QN1  5 4 3  NOUT OFF
QN2 11 6 7  NOUT OFF
QP1 6 11 3  POUT OFF
QP2  4 5 7  POUT OFF
DF  4  5  DZ OFF
DR  6 11  DZ OFF
RF  4 6  20MEG
RT2 1 7  82.2M
RH  7 6  52.5
RGP 8 3  120
RG  2 8  58
RS  8 4  12
DN  9 2  DIN OFF
RN  9 3  61.2
GNN  6 7 9 3 55.4M
GNP  4 5 9 3 70.5M
DP 2 10  DIP OFF
RP 10 3  35.6
GP  7 6 10 3 37.3M
.MODEL DIN  D (IS=76.4F)
.MODEL DIP  D (IS=76.4F N=1.19)
.MODEL DZ   D (IS=76.4F N=1.5 IBV=20U BV=400)
.MODEL POUT PNP (IS=76.4F BF=5 CJE=1.12N TF=63.8U)
.MODEL NOUT NPN (IS=76.4F BF=20 CJE=1.12N CJC=223P TF=4.25U)
.ENDS
*****
*SRC=L6006L6;L6006L6;TRIACS;TECCOR;600V 6A
*SYM=TRIAC
.SUBCKT L6006L6   1  2  3
*     TERMINALS: MT2 G MT1
QN1  5 4 3  NOUT OFF
QN2 11 6 7  NOUT OFF
QP1 6 11 3  POUT OFF
QP2  4 5 7  POUT OFF
DF  4  5  DZ OFF
DR  6 11  DZ OFF
RF  4 6  30MEG
RT2 1 7  82.2M
RH  7 6  52.5
RGP 8 3  120
RG  2 8  58
RS  8 4  12
DN  9 2  DIN OFF
RN  9 3  61.2
GNN  6 7 9 3 55.4M
GNP  4 5 9 3 70.5M
DP 2 10  DIP OFF
RP 10 3  35.6
GP  7 6 10 3 37.3M
.MODEL DIN  D (IS=76.4F)
.MODEL DIP  D (IS=76.4F N=1.19)
.MODEL DZ   D (IS=76.4F N=1.5 IBV=20U BV=600)
.MODEL POUT PNP (IS=76.4F BF=5 CJE=1.34N TF=63.8U)
.MODEL NOUT NPN (IS=76.4F BF=20 CJE=1.34N CJC=268P TF=4.25U)
.ENDS
*****
*SRC=L2006L8;L2006L8;TRIACS;TECCOR;200V 6A
*SYM=TRIAC
.SUBCKT L2006L8   1  2  3
*     TERMINALS: MT2 G MT1
QN1  5 4 3  NOUT OFF
QN2 11 6 7  NOUT OFF
QP1 6 11 3  POUT OFF
QP2  4 5 7  POUT OFF
DF  4  5  DZ OFF
DR  6 11  DZ OFF
RF  4 6  10MEG
RT2 1 7  82.2M
RH  7 6  35
RGP 8 3  60
RG  2 8  29
RS  8 4  6
DN  9 2  DIN OFF
RN  9 3  30.6
GNN  6 7 9 3 83M
GNP  4 5 9 3 0.141
DP 2 10  DIP OFF
RP 10 3  17.8
GP  7 6 10 3 55.9M
.MODEL DIN  D (IS=115F)
.MODEL DIP  D (IS=115F N=1.19)
.MODEL DZ   D (IS=115F N=1.5 IBV=20U BV=200)
.MODEL POUT PNP (IS=115F BF=5 CJE=1.12N TF=76.5U)
.MODEL NOUT NPN (IS=115F BF=20 CJE=1.12N CJC=223P TF=5.1U)
.ENDS
*****
*SRC=L4006L8;L4006L8;TRIACS;TECCOR;400V 6A
*SYM=TRIAC
.SUBCKT L4006L8   1  2  3
*     TERMINALS: MT2 G MT1
QN1  5 4 3  NOUT OFF
QN2 11 6 7  NOUT OFF
QP1 6 11 3  POUT OFF
QP2  4 5 7  POUT OFF
DF  4  5  DZ OFF
DR  6 11  DZ OFF
RF  4 6  20MEG
RT2 1 7  82.2M
RH  7 6  35
RGP 8 3  60
RG  2 8  29
RS  8 4  6
DN  9 2  DIN OFF
RN  9 3  30.6
GNN  6 7 9 3 83M
GNP  4 5 9 3 0.141
DP 2 10  DIP OFF
RP 10 3  17.8
GP  7 6 10 3 55.9M
.MODEL DIN  D (IS=115F)
.MODEL DIP  D (IS=115F N=1.19)
.MODEL DZ   D (IS=115F N=1.5 IBV=20U BV=400)
.MODEL POUT PNP (IS=115F BF=5 CJE=1.26N TF=76.5U)
.MODEL NOUT NPN (IS=115F BF=20 CJE=1.26N CJC=251P TF=5.1U)
.ENDS
*****
*SRC=L6006L8;L6006L8;TRIACS;TECCOR;600V 6A
*SYM=TRIAC
.SUBCKT L6006L8   1  2  3
*     TERMINALS: MT2 G MT1
QN1  5 4 3  NOUT OFF
QN2 11 6 7  NOUT OFF
QP1 6 11 3  POUT OFF
QP2  4 5 7  POUT OFF
DF  4  5  DZ OFF
DR  6 11  DZ OFF
RF  4 6  30MEG
RT2 1 7  82.2M
RH  7 6  35
RGP 8 3  60
RG  2 8  29
RS  8 4  6
DN  9 2  DIN OFF
RN  9 3  30.6
GNN  6 7 9 3 83M
GNP  4 5 9 3 0.141
DP 2 10  DIP OFF
RP 10 3  17.8
GP  7 6 10 3 55.9M
.MODEL DIN  D (IS=115F)
.MODEL DIP  D (IS=115F N=1.19)
.MODEL DZ   D (IS=115F N=1.5 IBV=20U BV=600)
.MODEL POUT PNP (IS=115F BF=5 CJE=1.68N TF=76.5U)
.MODEL NOUT NPN (IS=115F BF=20 CJE=1.68N CJC=335P TF=5.1U)
.ENDS
*****
*SRC=L2008L6;L2008L6;TRIACS;TECCOR;200V 8A
*SYM=TRIAC
.SUBCKT L2008L6   1  2  3
*     TERMINALS: MT2 G MT1
QN1  5 4 3  NOUT OFF
QN2 11 6 7  NOUT OFF
QP1 6 11 3  POUT OFF
QP2  4 5 7  POUT OFF
DF  4  5  DZ OFF
DR  6 11  DZ OFF
RF  4 6  10MEG
RT2 1 7  61.6M
RH  7 6  52.5
RGP 8 3  120
RG  2 8  58
RS  8 4  12
DN  9 2  DIN OFF
RN  9 3  61.2
GNN  6 7 9 3 55.4M
GNP  4 5 9 3 70.5M
DP 2 10  DIP OFF
RP 10 3  35.6
GP  7 6 10 3 37.3M
.MODEL DIN  D (IS=76.4F)
.MODEL DIP  D (IS=76.4F N=1.19)
.MODEL DZ   D (IS=76.4F N=1.5 IBV=20U BV=200)
.MODEL POUT PNP (IS=76.4F BF=5 CJE=838P TF=63.8U)
.MODEL NOUT NPN (IS=76.4F BF=20 CJE=838P CJC=168P TF=4.25U)
.ENDS
*****
*SRC=L4008L6;L4008L6;TRIACS;TECCOR;400V 8A
*SYM=TRIAC
.SUBCKT L4008L6   1  2  3
*     TERMINALS: MT2 G MT1
QN1  5 4 3  NOUT OFF
QN2 11 6 7  NOUT OFF
QP1 6 11 3  POUT OFF
QP2  4 5 7  POUT OFF
DF  4  5  DZ OFF
DR  6 11  DZ OFF
RF  4 6  20MEG
RT2 1 7  61.6M
RH  7 6  52.5
RGP 8 3  120
RG  2 8  58
RS  8 4  12
DN  9 2  DIN OFF
RN  9 3  61.2
GNN  6 7 9 3 55.4M
GNP  4 5 9 3 70.5M
DP 2 10  DIP OFF
RP 10 3  35.6
GP  7 6 10 3 37.3M
.MODEL DIN  D (IS=76.4F)
.MODEL DIP  D (IS=76.4F N=1.19)
.MODEL DZ   D (IS=76.4F N=1.5 IBV=20U BV=400)
.MODEL POUT PNP (IS=76.4F BF=5 CJE=1.12N TF=63.8U)
.MODEL NOUT NPN (IS=76.4F BF=20 CJE=1.12N CJC=223P TF=4.25U)
.ENDS
*****
*SRC=L6008L6;L6008L6;TRIACS;TECCOR;800V 8A
*SYM=TRIAC
.SUBCKT L6008L6   1  2  3
*     TERMINALS: MT2 G MT1
QN1  5 4 3  NOUT OFF
QN2 11 6 7  NOUT OFF
QP1 6 11 3  POUT OFF
QP2  4 5 7  POUT OFF
DF  4  5  DZ OFF
DR  6 11  DZ OFF
RF  4 6  40MEG
RT2 1 7  61.6M
RH  7 6  52.5
RGP 8 3  120
RG  2 8  58
RS  8 4  12
DN  9 2  DIN OFF
RN  9 3  61.2
GNN  6 7 9 3 55.4M
GNP  4 5 9 3 70.5M
DP 2 10  DIP OFF
RP 10 3  35.6
GP  7 6 10 3 37.3M
.MODEL DIN  D (IS=76.4F)
.MODEL DIP  D (IS=76.4F N=1.19)
.MODEL DZ   D (IS=76.4F N=1.5 IBV=20U BV=800)
.MODEL POUT PNP (IS=76.4F BF=5 CJE=1.68N TF=63.8U)
.MODEL NOUT NPN (IS=76.4F BF=20 CJE=1.68N CJC=335P TF=4.25U)
.ENDS
*****
*SRC=L2002L8;L2002L8;TRIACS;TECCOR;200V 8A
*SYM=TRIAC
.SUBCKT L2002L8   1  2  3
*     TERMINALS: MT2 G MT1
QN1  5 4 3  NOUT OFF
QN2 11 6 7  NOUT OFF
QP1 6 11 3  POUT OFF
QP2  4 5 7  POUT OFF
DF  4  5  DZ OFF
DR  6 11  DZ OFF
RF  4 6  10MEG
RT2 1 7  61.6M
RH  7 6  35
RGP 8 3  60
RG  2 8  29
RS  8 4  6
DN  9 2  DIN OFF
RN  9 3  30.6
GNN  6 7 9 3 83M
GNP  4 5 9 3 0.141
DP 2 10  DIP OFF
RP 10 3  17.8
GP  7 6 10 3 55.9M
.MODEL DIN  D (IS=115F)
.MODEL DIP  D (IS=115F N=1.19)
.MODEL DZ   D (IS=115F N=1.5 IBV=20U BV=200)
.MODEL POUT PNP (IS=115F BF=5 CJE=1.12N TF=76.5U)
.MODEL NOUT NPN (IS=115F BF=20 CJE=1.12N CJC=223P TF=5.1U)
.ENDS
*****
*SRC=L4008L8;L4008L8;TRIACS;TECCOR;600V 8A
*SYM=TRIAC
.SUBCKT L4008L8   1  2  3
*     TERMINALS: MT2 G MT1
QN1  5 4 3  NOUT OFF
QN2 11 6 7  NOUT OFF
QP1 6 11 3  POUT OFF
QP2  4 5 7  POUT OFF
DF  4  5  DZ OFF
DR  6 11  DZ OFF
RF  4 6  30MEG
RT2 1 7  61.6M
RH  7 6  35
RGP 8 3  60
RG  2 8  29
RS  8 4  6
DN  9 2  DIN OFF
RN  9 3  30.6
GNN  6 7 9 3 83M
GNP  4 5 9 3 0.141
DP 2 10  DIP OFF
RP 10 3  17.8
GP  7 6 10 3 55.9M
.MODEL DIN  D (IS=115F)
.MODEL DIP  D (IS=115F N=1.19)
.MODEL DZ   D (IS=115F N=1.5 IBV=20U BV=600)
.MODEL POUT PNP (IS=115F BF=5 CJE=1.68N TF=76.5U)
.MODEL NOUT NPN (IS=115F BF=20 CJE=1.68N CJC=335P TF=5.1U)
.ENDS
*****
*SRC=Q201E3;Q201E3;TRIACS;TECCOR;200V 1A
*SYM=TRIAC
.SUBCKT Q201E3    1  2  3
*     TERMINALS: MT2 G MT1
QN1  5 4 3  NOUT OFF
QN2 11 6 7  NOUT OFF
QP1 6 11 3  POUT OFF
QP2  4 5 7  POUT OFF
DF  4  5  DZ OFF
DR  6 11  DZ OFF
RF  4 6  10MEG
RT2 1 7  0.493
RH  7 6  35
RGP 8 3  60
RG  2 8  29
RS  8 4  6
DN  9 2  DIN OFF
RN  9 3  30.6
GNN  6 7 9 3 83M
GNP  4 5 9 3 0.141
DP 2 10  DIP OFF
RP 10 3  17.8
GP  7 6 10 3 55.9M
.MODEL DIN  D (IS=115F)
.MODEL DIP  D (IS=115F N=1.19)
.MODEL DZ   D (IS=115F N=1.5 IBV=20U BV=200)
.MODEL POUT PNP (IS=115F BF=5 CJE=1.26N TF=63.8U)
.MODEL NOUT NPN (IS=115F BF=20 CJE=1.26N CJC=251P TF=4.25U)
.ENDS
*****
*SRC=Q401E3;Q401E3;TRIACS;TECCOR;400V 1A
*SYM=TRIAC
.SUBCKT Q401E3    1  2  3
*     TERMINALS: MT2 G MT1
QN1  5 4 3  NOUT OFF
QN2 11 6 7  NOUT OFF
QP1 6 11 3  POUT OFF
QP2  4 5 7  POUT OFF
DF  4  5  DZ OFF
DR  6 11  DZ OFF
RF  4 6  20MEG
RT2 1 7  0.493
RH  7 6  35
RGP 8 3  60
RG  2 8  29
RS  8 4  6
DN  9 2  DIN OFF
RN  9 3  30.6
GNN  6 7 9 3 83M
GNP  4 5 9 3 0.141
DP 2 10  DIP OFF
RP 10 3  17.8
GP  7 6 10 3 55.9M
.MODEL DIN  D (IS=115F)
.MODEL DIP  D (IS=115F N=1.19)
.MODEL DZ   D (IS=115F N=1.5 IBV=20U BV=400)
.MODEL POUT PNP (IS=115F BF=5 CJE=1.26N TF=63.8U)
.MODEL NOUT NPN (IS=115F BF=20 CJE=1.26N CJC=251P TF=4.25U)
.ENDS
*****
*SRC=Q501E3;Q501E3;TRIACS;TECCOR;500V 1A
*SYM=TRIAC
.SUBCKT Q501E3    1  2  3
*     TERMINALS: MT2 G MT1
QN1  5 4 3  NOUT OFF
QN2 11 6 7  NOUT OFF
QP1 6 11 3  POUT OFF
QP2  4 5 7  POUT OFF
DF  4  5  DZ OFF
DR  6 11  DZ OFF
RF  4 6  25MEG
RT2 1 7  0.493
RH  7 6  35
RGP 8 3  60
RG  2 8  29
RS  8 4  6
DN  9 2  DIN OFF
RN  9 3  30.6
GNN  6 7 9 3 83M
GNP  4 5 9 3 0.141
DP 2 10  DIP OFF
RP 10 3  17.8
GP  7 6 10 3 55.9M
.MODEL DIN  D (IS=115F)
.MODEL DIP  D (IS=115F N=1.19)
.MODEL DZ   D (IS=115F N=1.5 IBV=20U BV=500)
.MODEL POUT PNP (IS=115F BF=5 CJE=1.68N TF=63.8U)
.MODEL NOUT NPN (IS=115F BF=20 CJE=1.68N CJC=335P TF=4.25U)
.ENDS
*****
*SRC=Q601E3;Q601E3;TRIACS;TECCOR;600V 1A
*SYM=TRIAC
.SUBCKT Q601E3    1  2  3
*     TERMINALS: MT2 G MT1
QN1  5 4 3  NOUT OFF
QN2 11 6 7  NOUT OFF
QP1 6 11 3  POUT OFF
QP2  4 5 7  POUT OFF
DF  4  5  DZ OFF
DR  6 11  DZ OFF
RF  4 6  30MEG
RT2 1 7  0.493
RH  7 6  35
RGP 8 3  60
RG  2 8  29
RS  8 4  6
DN  9 2  DIN OFF
RN  9 3  30.6
GNN  6 7 9 3 83M
GNP  4 5 9 3 0.141
DP 2 10  DIP OFF
RP 10 3  17.8
GP  7 6 10 3 55.9M
.MODEL DIN  D (IS=115F)
.MODEL DIP  D (IS=115F N=1.19)
.MODEL DZ   D (IS=115F N=1.5 IBV=20U BV=600)
.MODEL POUT PNP (IS=115F BF=5 CJE=1.68N TF=63.8U)
.MODEL NOUT NPN (IS=115F BF=20 CJE=1.68N CJC=335P TF=4.25U)
.ENDS
*****
*SRC=Q201E4;Q201E4;TRIACS;TECCOR;200V 1A
*SYM=TRIAC
.SUBCKT Q201E4    1  2  3
*     TERMINALS: MT2 G MT1
QN1  5 4 3  NOUT OFF
QN2 11 6 7  NOUT OFF
QP1 6 11 3  POUT OFF
QP2  4 5 7  POUT OFF
DF  4  5  DZ OFF
DR  6 11  DZ OFF
RF  4 6  10MEG
RT2 1 7  0.493
RH  7 6  21
RGP 8 3  24
RG  2 8  11.6
RS  8 4  6
DN  9 2  DIN OFF
RN  9 3  12.2
GNN  6 7 9 3 0.138
GNP  4 5 9 3 0.261
DP 2 10  DIP OFF
RP 10 3  7.12
GP  7 6 10 3 93.2M
.MODEL DIN  D (IS=191F)
.MODEL DIP  D (IS=191F N=1.19)
.MODEL DZ   D (IS=191F N=1.5 IBV=20U BV=200)
.MODEL POUT PNP (IS=191F BF=5 CJE=1.68N TF=76.5U)
.MODEL NOUT NPN (IS=191F BF=20 CJE=1.68N CJC=335P TF=5.1U)
.ENDS
*****
*SRC=Q401E4;Q401E4;TRIACS;TECCOR;400V 1A
*SYM=TRIAC
.SUBCKT Q401E4    1  2  3
*     TERMINALS: MT2 G MT1
QN1  5 4 3  NOUT OFF
QN2 11 6 7  NOUT OFF
QP1 6 11 3  POUT OFF
QP2  4 5 7  POUT OFF
DF  4  5  DZ OFF
DR  6 11  DZ OFF
RF  4 6  20MEG
RT2 1 7  0.493
RH  7 6  21
RGP 8 3  24
RG  2 8  11.6
RS  8 4  6
DN  9 2  DIN OFF
RN  9 3  12.2
GNN  6 7 9 3 0.138
GNP  4 5 9 3 0.261
DP 2 10  DIP OFF
RP 10 3  7.12
GP  7 6 10 3 93.2M
.MODEL DIN  D (IS=191F)
.MODEL DIP  D (IS=191F N=1.19)
.MODEL DZ   D (IS=191F N=1.5 IBV=20U BV=400)
.MODEL POUT PNP (IS=191F BF=5 CJE=1.68N TF=76.5U)
.MODEL NOUT NPN (IS=191F BF=20 CJE=1.68N CJC=335P TF=5.1U)
.ENDS
*****
*SRC=Q501E4;Q501E4;TRIACS;TECCOR;500V 1A
*SYM=TRIAC
.SUBCKT Q501E4    1  2  3
*     TERMINALS: MT2 G MT1
QN1  5 4 3  NOUT OFF
QN2 11 6 7  NOUT OFF
QP1 6 11 3  POUT OFF
QP2  4 5 7  POUT OFF
DF  4  5  DZ OFF
DR  6 11  DZ OFF
RF  4 6  25MEG
RT2 1 7  0.493
RH  7 6  21
RGP 8 3  24
RG  2 8  11.6
RS  8 4  6
DN  9 2  DIN OFF
RN  9 3  12.2
GNN  6 7 9 3 0.138
GNP  4 5 9 3 0.261
DP 2 10  DIP OFF
RP 10 3  7.12
GP  7 6 10 3 93.2M
.MODEL DIN  D (IS=191F)
.MODEL DIP  D (IS=191F N=1.19)
.MODEL DZ   D (IS=191F N=1.5 IBV=20U BV=500)
.MODEL POUT PNP (IS=191F BF=5 CJE=2.09N TF=76.5U)
.MODEL NOUT NPN (IS=191F BF=20 CJE=2.09N CJC=419P TF=5.1U)
.ENDS
*****
*SRC=Q601E4;Q601E4;TRIACS;TECCOR;600V 1A
*SYM=TRIAC
.SUBCKT Q601E4    1  2  3
*     TERMINALS: MT2 G MT1
QN1  5 4 3  NOUT OFF
QN2 11 6 7  NOUT OFF
QP1 6 11 3  POUT OFF
QP2  4 5 7  POUT OFF
DF  4  5  DZ OFF
DR  6 11  DZ OFF
RF  4 6  30MEG
RT2 1 7  0.493
RH  7 6  21
RGP 8 3  24
RG  2 8  11.6
RS  8 4  6
DN  9 2  DIN OFF
RN  9 3  12.2
GNN  6 7 9 3 0.138
GNP  4 5 9 3 0.261
DP 2 10  DIP OFF
RP 10 3  7.12
GP  7 6 10 3 93.2M
.MODEL DIN  D (IS=191F)
.MODEL DIP  D (IS=191F N=1.19)
.MODEL DZ   D (IS=191F N=1.5 IBV=20U BV=600)
.MODEL POUT PNP (IS=191F BF=5 CJE=2.09N TF=76.5U)
.MODEL NOUT NPN (IS=191F BF=20 CJE=2.09N CJC=419P TF=5.1U)
.ENDS
*****
*SRC=Q2004L3;Q2004L3;TRIACS;TECCOR;200V 4A
*SYM=TRIAC
.SUBCKT Q2004L3   1  2  3
*     TERMINALS: MT2 G MT1
QN1  5 4 3  NOUT OFF
QN2 11 6 7  NOUT OFF
QP1 6 11 3  POUT OFF
QP2  4 5 7  POUT OFF
DF  4  5  DZ OFF
DR  6 11  DZ OFF
RF  4 6  4MEG