Version 4
SHEET 1 880 680
WIRE -48 -80 -48 -128
WIRE -48 16 -48 0
WIRE -48 320 -80 320
WIRE -48 320 -48 112
WIRE 240 -128 -48 -128
WIRE 240 32 240 -128
WIRE 240 320 -48 320
WIRE 240 320 240 112
FLAG -80 320 0
SYMBOL voltage 240 16 R0
WINDOW 123 0 0 Left 0
WINDOW 39 0 0 Left 0
SYMATTR InstName V1
SYMATTR Value SINE(0 300 100)
SYMBOL res -64 -96 R0
SYMATTR InstName R1
SYMATTR Value 10
SYMBOL EXTRA\\TECCOR\\SIDAC\\K1050E70 -48 64 R0
SYMATTR InstName U1
TEXT -290 506 Left 0 !.tran 1s
