Version 4
SHEET 1 1396 680
WIRE 16 -64 0 -64
WIRE 128 -64 96 -64
WIRE 288 -64 128 -64
WIRE 368 -64 288 -64
WIRE -304 -48 -320 -48
WIRE -288 -48 -304 -48
WIRE -208 -48 -224 -48
WIRE -192 -48 -208 -48
WIRE 560 -48 432 -48
WIRE 368 -32 256 -32
WIRE 448 -16 400 -16
WIRE 464 -16 448 -16
WIRE -320 0 -320 -48
WIRE -192 0 -192 -48
WIRE 256 48 256 -32
WIRE 368 48 256 48
WIRE 560 48 560 -48
WIRE 560 48 448 48
WIRE 576 48 560 48
WIRE 608 48 576 48
WIRE 720 48 688 48
WIRE 736 48 720 48
WIRE 864 48 832 48
WIRE 944 48 864 48
WIRE 1056 48 1024 48
WIRE 256 64 256 48
WIRE 736 112 736 48
WIRE 832 112 832 48
WIRE -320 128 -320 80
WIRE -256 128 -320 128
WIRE -192 128 -192 80
WIRE -192 128 -256 128
WIRE 128 128 128 -64
WIRE -256 144 -256 128
WIRE 1056 144 1056 48
WIRE 1088 144 1056 144
WIRE 256 160 256 144
WIRE -304 208 -320 208
WIRE -288 208 -304 208
WIRE -208 208 -224 208
WIRE -192 208 -208 208
WIRE -320 256 -320 208
WIRE -192 256 -192 208
WIRE 256 256 256 224
WIRE 368 256 256 256
WIRE 560 256 448 256
WIRE 576 256 560 256
WIRE 608 256 576 256
WIRE 720 256 688 256
WIRE 736 256 736 192
WIRE 736 256 720 256
WIRE 832 256 832 192
WIRE 880 256 832 256
WIRE 944 256 880 256
WIRE 1056 256 1056 144
WIRE 1056 256 1024 256
WIRE 432 336 400 336
WIRE 448 336 432 336
WIRE 256 352 256 256
WIRE 368 352 256 352
WIRE 560 368 560 256
WIRE 560 368 432 368
WIRE -320 384 -320 336
WIRE -256 384 -320 384
WIRE -192 384 -192 336
WIRE -192 384 -256 384
WIRE 16 384 0 384
WIRE 128 384 128 208
WIRE 128 384 96 384
WIRE 288 384 128 384
WIRE 368 384 288 384
WIRE -256 400 -256 384
FLAG -256 144 0
FLAG -208 -48 +12V
FLAG -304 -48 +6V
FLAG 400 -80 0
FLAG 288 -64 +Buffer
FLAG 288 384 -Buffer
FLAG 448 -16 +12V
FLAG 432 336 +12V
FLAG 400 400 0
FLAG 1088 144 0
FLAG 576 48 +Vo
FLAG 576 256 -Vo
FLAG 864 48 +Vload
FLAG 880 256 -Vload
FLAG 720 48 +Tx
FLAG 720 256 -Tx
FLAG -256 400 0
FLAG -208 208 Tx
FLAG -304 208 Vo
FLAG 0 -64 +6V
FLAG 0 384 +6V
SYMBOL voltage -192 -16 R0
WINDOW 123 0 0 Left 0
WINDOW 39 0 0 Left 0
SYMATTR InstName Vcc12
SYMATTR Value 12
SYMBOL voltage -320 -16 R0
WINDOW 123 0 0 Left 0
WINDOW 39 0 0 Left 0
SYMATTR InstName Vcc6
SYMATTR Value 6
SYMBOL voltage 128 112 R0
WINDOW 123 24 132 Left 0
WINDOW 39 0 0 Left 0
WINDOW 0 -64 32 Left 0
WINDOW 3 55 -115 VRight 0
SYMATTR InstName V1
SYMATTR Value PULSE(-0.5 0.5 0 1n 1n 50n 100n)
SYMBOL res 240 48 R0
SYMATTR InstName RG
SYMATTR Value 450
SYMBOL res 464 32 R90
WINDOW 0 16 107 VBottom 0
WINDOW 3 -12 -3 VTop 0
SYMATTR InstName RF+
SYMATTR Value 1k2
SYMBOL res 464 240 R90
WINDOW 0 18 108 VBottom 0
WINDOW 3 -13 5 VTop 0
SYMATTR InstName RF-
SYMATTR Value 1k2
SYMBOL res 704 32 R90
WINDOW 0 0 56 VBottom 0
WINDOW 3 32 56 VTop 0
SYMATTR InstName R4
SYMATTR Value 12.5
SYMBOL res 704 240 R90
WINDOW 0 0 56 VBottom 0
WINDOW 3 32 56 VTop 0
SYMATTR InstName R5
SYMATTR Value 12.5
SYMBOL cap 240 160 R0
SYMATTR InstName C1
SYMATTR Value 1µ
SYMBOL ind2 720 96 R0
WINDOW 0 -34 27 Left 0
WINDOW 3 -47 81 Left 0
SYMATTR InstName L1
SYMATTR Value 368µ
SYMATTR Type ind
SYMBOL ind2 848 96 M0
WINDOW 0 -20 23 Left 0
WINDOW 3 -39 97 Left 0
SYMATTR InstName L2
SYMATTR Value 368µ
SYMATTR Type ind
SYMBOL res 1040 32 R90
WINDOW 0 0 56 VBottom 0
WINDOW 3 32 56 VTop 0
SYMATTR InstName R1
SYMATTR Value 50
SYMBOL res 1040 240 R90
WINDOW 0 0 56 VBottom 0
WINDOW 3 32 56 VTop 0
SYMATTR InstName R2
SYMATTR Value 50
SYMBOL bv -320 240 R0
WINDOW 3 -57 117 VLeft 0
SYMATTR Value V=V(+Vo,-Vo)/5
SYMATTR InstName B1
SYMBOL bv -192 240 R0
WINDOW 3 68 106 VLeft 0
SYMATTR Value V=V(+Tx,-Tx)/3.5
SYMATTR InstName B2
SYMBOL res 0 -48 R270
WINDOW 0 17 13 VTop 0
WINDOW 3 44 115 VBottom 0
SYMATTR InstName R3
SYMATTR Value 1k
SYMBOL res 0 400 R270
WINDOW 0 32 56 VTop 0
WINDOW 3 0 56 VBottom 0
SYMATTR InstName R6
SYMATTR Value 1k
SYMBOL Robertugo\\OPAMP5 400 16 M180
WINDOW 0 -26 64 Left 0
WINDOW 38 24 93 Left 0
SYMATTR InstName U1
SYMATTR SpiceModel LMH6672
SYMBOL Robertugo\\OPAMP5 400 304 R0
WINDOW 0 -28 64 Left 0
SYMATTR InstName U2
SYMATTR SpiceModel LMH6672
TEXT -328 -192 Left 0 ;.tran 0 100us 0 10n
TEXT 784 216 VLeft 0 !K1 L1 L2 1
TEXT -328 -168 Left 0 ;Fonctionne le 25 12 2005\nLe rapport (RF++RF-+RG)/RG=6,3\nEt le rapport de (+Vo--Vo)/V1 donne 6 ce qui est identique...
TEXT 272 -224 Left 0 ;Les valeurs des inductances du transformateur proviennent de la \ndocumentation du transformateur utilisé dans l'exemple donné \ndans les articles 1 et 2\nsous ce même répertoire. Voir le fichier adslxlt.pdf \nLe transfo X8390A à des inductances de 368uH.
TEXT 800 -56 Left 0 !.tran 0 100us 0 10n startup
