Version 4
SHEET 1 3172 680
WIRE 192 -368 192 -384
WIRE 192 -352 192 -368
WIRE 192 -240 192 -272
WIRE 192 -160 192 -176
WIRE 192 -32 192 -80
WIRE 272 -176 192 -176
WIRE 368 -176 272 -176
WIRE 368 -176 368 -224
WIRE 368 -96 368 -176
WIRE 400 -224 368 -224
WIRE 400 -96 368 -96
WIRE 448 -304 448 -352
WIRE 448 -176 448 -208
WIRE 448 -32 448 -80
WIRE 624 -176 448 -176
WIRE 624 -176 624 -224
WIRE 624 -96 624 -176
WIRE 656 -224 624 -224
WIRE 656 -96 624 -96
WIRE 704 -304 704 -352
WIRE 704 -176 704 -208
WIRE 704 -32 704 -80
WIRE 880 -176 704 -176
WIRE 880 -176 880 -224
WIRE 880 -96 880 -176
WIRE 912 -224 880 -224
WIRE 912 -96 880 -96
WIRE 960 -304 960 -352
WIRE 960 -176 960 -208
WIRE 960 -32 960 -80
WIRE 1136 -176 960 -176
WIRE 1136 -176 1136 -224
WIRE 1136 -96 1136 -176
WIRE 1168 -224 1136 -224
WIRE 1168 -96 1136 -96
WIRE 1216 -304 1216 -352
WIRE 1216 -176 1216 -208
WIRE 1216 -32 1216 -80
WIRE 1392 -176 1216 -176
WIRE 1392 -176 1392 -224
WIRE 1392 -96 1392 -176
WIRE 1424 -224 1392 -224
WIRE 1424 -96 1392 -96
WIRE 1472 -304 1472 -352
WIRE 1472 -192 1472 -208
WIRE 1472 -176 1472 -192
WIRE 1472 -32 1472 -80
WIRE 1664 -192 1472 -192
WIRE 1728 -192 1664 -192
WIRE 1728 -48 1728 -128
FLAG 448 -128 0
FLAG 192 -240 0
FLAG 192 -368 VDD
FLAG 448 -256 VDD
FLAG 448 -32 0
FLAG 448 -352 VDD
FLAG 704 -128 0
FLAG 704 -256 VDD
FLAG 704 -32 0
FLAG 704 -352 VDD
FLAG 960 -128 0
FLAG 960 -256 VDD
FLAG 960 -32 0
FLAG 960 -352 VDD
FLAG 1216 -128 0
FLAG 1216 -256 VDD
FLAG 1216 -32 0
FLAG 1216 -352 VDD
FLAG 1472 -128 0
FLAG 1472 -256 VDD
FLAG 1472 -32 0
FLAG 1472 -352 VDD
FLAG 1728 -48 0
FLAG 192 -32 0
FLAG 1664 -192 Vout
FLAG 272 -176 Vin
SYMBOL nmos4 400 -176 R0
WINDOW 0 104 24 Right 0
WINDOW 3 179 41 Right 0
WINDOW 123 213 74 Right 0
SYMATTR InstName M1
SYMATTR Value N_50n
SYMATTR Value2 l=50n w=500n
SYMBOL voltage 192 -368 R0
WINDOW 123 0 0 Left 0
WINDOW 39 0 0 Left 0
SYMATTR InstName VDD
SYMATTR Value 1
SYMBOL pmos4 400 -304 R0
WINDOW 0 88 9 Right 0
WINDOW 3 168 20 Right 0
WINDOW 123 206 76 Right 0
SYMATTR InstName M2
SYMATTR Value P_50n
SYMATTR Value2 l=50n w=1u
SYMBOL nmos4 656 -176 R0
WINDOW 0 104 24 Right 0
WINDOW 3 179 41 Right 0
WINDOW 123 213 74 Right 0
SYMATTR InstName M3
SYMATTR Value N_50n
SYMATTR Value2 l=50n w=500n m=8
SYMBOL pmos4 656 -304 R0
WINDOW 0 88 9 Right 0
WINDOW 3 168 20 Right 0
WINDOW 123 206 76 Right 0
SYMATTR InstName M4
SYMATTR Value P_50n
SYMATTR Value2 l=50n w=1u m=8
SYMBOL nmos4 912 -176 R0
WINDOW 0 104 24 Right 0
WINDOW 3 179 41 Right 0
WINDOW 123 213 74 Right 0
SYMATTR InstName M5
SYMATTR Value N_50n
SYMATTR Value2 l=50n w=500n m=64
SYMBOL pmos4 912 -304 R0
WINDOW 0 88 9 Right 0
WINDOW 3 168 20 Right 0
WINDOW 123 206 76 Right 0
SYMATTR InstName M6
SYMATTR Value P_50n
SYMATTR Value2 l=50n w=1u m=64
SYMBOL nmos4 1168 -176 R0
WINDOW 0 104 24 Right 0
WINDOW 3 179 41 Right 0
WINDOW 123 213 74 Right 0
SYMATTR InstName M7
SYMATTR Value N_50n
SYMATTR Value2 l=50n w=500n m=512
SYMBOL pmos4 1168 -304 R0
WINDOW 0 88 9 Right 0
WINDOW 3 168 20 Right 0
WINDOW 123 206 76 Right 0
SYMATTR InstName M8
SYMATTR Value P_50n
SYMATTR Value2 l=50n w=1u m=512
SYMBOL nmos4 1424 -176 R0
WINDOW 0 104 24 Right 0
WINDOW 3 179 41 Right 0
WINDOW 123 213 74 Right 0
SYMATTR InstName M9
SYMATTR Value N_50n
SYMATTR Value2 l=50n w=500n m=4096
SYMBOL pmos4 1424 -304 R0
WINDOW 0 88 9 Right 0
WINDOW 3 168 20 Right 0
WINDOW 123 206 76 Right 0
SYMATTR InstName M10
SYMATTR Value P_50n
SYMATTR Value2 l=50n w=1u m=4096
SYMBOL cap 1712 -192 R0
SYMATTR InstName Cload
SYMATTR Value 20p
SYMBOL voltage 192 -176 R0
WINDOW 3 -102 180 Left 0
WINDOW 123 0 0 Left 0
WINDOW 39 0 0 Left 0
SYMATTR Value PULSE(0 1 1n 1p 1p 3n 6n)
SYMATTR InstName V1
TEXT 88 48 Left 0 !.tran 0 7n 0 1p
TEXT 88 72 Left 0 !.lib cmosedu_models.txt
TEXT 536 -480 Left 0 ;Plot Vout Vin
TEXT 368 -312 Left 0 ;20/1
TEXT 360 -72 Left 0 ;10/1
TEXT 624 -312 Left 0 ;160/1
TEXT 616 -72 Left 0 ;80/1
TEXT 880 -312 Left 0 ;1280/1
TEXT 872 -72 Left 0 ;640/1
TEXT 1136 -312 Left 0 ;10240/1
TEXT 1128 -72 Left 0 ;5120/1
TEXT 1392 -312 Left 0 ;81,920/1
TEXT 1384 -72 Left 0 ;40,960/1
