Version 4
SHEET 1 1136 680
WIRE 176 -144 176 -160
WIRE 176 -48 176 -64
WIRE 192 -368 192 -384
WIRE 192 -352 192 -368
WIRE 192 -240 192 -272
WIRE 320 -176 304 -176
WIRE 368 -176 320 -176
WIRE 704 -176 624 -176
WIRE 752 -176 704 -176
WIRE 752 -64 752 -112
FLAG 176 -48 0
FLAG 704 -176 Vout
FLAG 176 -160 Vin
FLAG 192 -240 0
FLAG 192 -368 VDD
FLAG 320 -176 Vin
FLAG 752 -64 0
FLAG 480 -256 VDD
FLAG 480 -96 0
SYMBOL voltage 176 -160 R0
WINDOW 0 -72 21 Left 0
WINDOW 3 -106 154 Left 0
WINDOW 123 0 0 Left 0
WINDOW 39 0 0 Left 0
SYMATTR InstName Vin
SYMATTR Value PULSE(0 1 500p 1p 1p 1000p)
SYMBOL voltage 192 -368 R0
WINDOW 123 0 0 Left 0
WINDOW 39 0 0 Left 0
SYMATTR InstName VDD
SYMATTR Value 1
SYMBOL cap 736 -176 R0
SYMATTR InstName C1
SYMATTR Value 50f
SYMBOL INV_20_10 400 -240 R0
SYMATTR InstName U1
TEXT 504 -48 Left 0 !.tran 0 2n 0 1p
TEXT 496 -360 Left 0 ;Plot Vin Vout
TEXT 504 -24 Left 0 !.lib cmosedu_models.txt
