Version 4
SHEET 1 880 680
WIRE 160 272 0 272
WIRE 416 272 240 272
WIRE 0 288 0 272
WIRE 416 288 416 272
WIRE 0 384 0 368
WIRE 416 384 416 368
FLAG 0 384 0
FLAG 416 384 0
SYMBOL voltage 0 272 R0
WINDOW 123 38 45 Left 0
WINDOW 39 0 0 Left 0
SYMATTR Value2 AC 1
SYMATTR InstName Vs
SYMATTR Value ""
SYMBOL voltage 416 272 R0
WINDOW 123 0 0 Left 0
WINDOW 39 0 0 Left 0
WINDOW 3 38 48 Left 0
SYMATTR Value 0
SYMATTR InstName Out
SYMBOL xtal_param 160 304 R0
SYMATTR InstName X1
TEXT 8 368 Left 0 !.ac lin 1e3 9.99999Meg 10.00001Meg
TEXT 256 184 Left 0 !.param Rs=65\n.param fs=1e7\n.param Q=1.0e6
