Version 4
SHEET 1 1012 740
WIRE 16 272 0 272
WIRE 160 272 16 272
WIRE 368 272 240 272
WIRE 384 272 368 272
WIRE 0 304 0 272
WIRE 384 304 384 272
WIRE 0 400 0 384
WIRE 384 400 384 384
WIRE 0 432 0 400
WIRE 0 528 0 512
FLAG 384 400 0
FLAG 16 272 Out
IOPIN 16 272 In
FLAG 0 528 0
FLAG 0 400 V10M
FLAG 368 272 In
SYMBOL voltage 384 288 R0
WINDOW 0 -77 7 Left 0
WINDOW 3 -37 91 Left 0
WINDOW 123 0 0 Left 0
WINDOW 39 -37 119 Left 0
SYMATTR InstName Vload
SYMATTR Value 0
SYMBOL bv 0 288 R0
WINDOW 3 11 108 Left 0
SYMATTR InstName B1
SYMATTR Value V=4000*I(Vload)
SYMBOL voltage 0 416 R0
WINDOW 0 95 102 Right 0
WINDOW 3 -65 -76 VRight 0
WINDOW 123 0 0 Left 0
WINDOW 39 0 0 Left 0
SYMATTR InstName V10M
SYMATTR Value PULSE(0 1 0 2n 2n 48n 100n 2)
SYMBOL xtal_param_Cpar_0 160 304 R0
SYMATTR InstName X1
TEXT 216 520 Left 0 !.tran 0 2m 200n 1n
TEXT 128 368 Left 0 ;Feedback Circuit
TEXT 40 488 Left 0 ;Startup Circuit
TEXT 120 152 Left 0 !.param Rs=65\n.param fs=1e7\n.param Q=1.0e6
LINE Normal 62 345 334 345
LINE Normal 94 329 62 345
LINE Normal 94 361 62 345
LINE Normal 94 361 94 361
