Version 4
SHEET 1 1916 1076
WIRE 160 -96 0 -96
WIRE 336 -96 160 -96
WIRE 368 -96 336 -96
WIRE 464 -96 448 -96
WIRE 480 -96 464 -96
WIRE 512 -96 480 -96
WIRE 624 -96 592 -96
WIRE 480 -80 480 -96
WIRE 0 -64 0 -96
WIRE 160 -64 160 -96
WIRE 480 0 480 -16
WIRE 0 32 0 16
WIRE 160 32 160 16
WIRE 336 96 336 -96
WIRE 336 96 144 96
WIRE 368 96 336 96
WIRE 400 96 368 96
WIRE 624 96 624 -96
WIRE 624 96 544 96
WIRE 144 272 144 96
WIRE 288 272 144 272
WIRE 336 272 288 272
WIRE 368 272 336 272
WIRE 480 272 448 272
WIRE 512 272 480 272
WIRE 624 272 624 96
WIRE 624 272 512 272
WIRE 512 288 512 272
WIRE 192 304 144 304
WIRE 288 304 288 272
WIRE 144 336 144 304
WIRE 512 368 512 352
WIRE 288 384 288 368
WIRE 144 448 144 416
FLAG 512 368 0
FLAG 288 384 0
FLAG 192 304 VDD
FLAG 144 448 0
FLAG 480 0 0
FLAG 464 -96 fbc
FLAG 160 32 0
FLAG 368 96 Out
FLAG 336 272 Pin1
FLAG 480 272 Pin2
FLAG 496 144 0
FLAG 464 64 VDD
FLAG 0 32 0
SYMBOL cap 272 304 R0
SYMATTR Value 32p
SYMATTR InstName C1
SYMBOL cap 496 288 R0
WINDOW 3 35 55 Left 0
SYMATTR Value 32p
SYMATTR InstName C2
SYMBOL voltage 144 320 R0
WINDOW 123 0 0 Left 0
WINDOW 39 0 0 Left 0
SYMATTR InstName VDD
SYMATTR Value 1
SYMBOL res 352 -80 R270
WINDOW 0 32 56 VTop 0
WINDOW 3 0 56 VBottom 0
SYMATTR InstName R3
SYMATTR Value 1meg
SYMBOL res 496 -80 R270
WINDOW 0 32 56 VTop 0
WINDOW 3 0 56 VBottom 0
SYMATTR InstName R5
SYMATTR Value 10meg
SYMBOL cap 464 -80 R0
SYMATTR InstName C4
SYMATTR Value 100f
SYMBOL current 160 16 R180
WINDOW 0 24 88 Left 0
WINDOW 3 63 -318 VRight 0
WINDOW 123 0 0 Left 0
WINDOW 39 0 0 Left 0
SYMATTR InstName IstartP
SYMATTR Value PULSE(0 100 0 1n 1n 49n 100n 20)
SYMBOL xtal_param 368 304 R0
SYMATTR InstName X1
SYMBOL inv3_small 528 144 M0
SYMATTR InstName X2
SYMBOL current 0 -64 R0
WINDOW 0 -93 -17 Left 0
WINDOW 3 -58 10 VRight 0
WINDOW 123 0 0 Left 0
WINDOW 39 0 0 Left 0
SYMATTR InstName IstartN
SYMATTR Value PULSE(0 100 50n 1n 1n 49n 100n 20)
TEXT 344 496 Left 0 !.tran 0 20.01m 10u 500p uic
TEXT 80 496 Left 0 !.lib cmosedu_models.txt
TEXT 272 200 Left 0 !.ic v(Pin1)=.489 V(Pin2)=.489588
TEXT 208 -120 Left 0 !.ic V(fbc)=.482
TEXT 344 408 Left 0 !.param Rs=65\n.param fs=1e7-630\n.param Q=1e5
