Version 4
SHEET 1 1012 680
WIRE 160 272 0 272
WIRE 384 272 240 272
WIRE 0 288 0 272
WIRE 384 304 384 272
WIRE 0 400 0 368
WIRE 64 400 0 400
WIRE 112 400 64 400
WIRE 256 400 192 400
WIRE 384 400 384 384
WIRE 80 544 48 544
WIRE 256 544 256 400
WIRE 256 544 160 544
WIRE 48 560 48 544
FLAG 384 400 0
FLAG 64 400 Out
IOPIN 64 400 In
FLAG 48 560 0
FLAG 256 400 V10M
SYMBOL voltage 384 288 R0
WINDOW 0 -77 7 Left 0
WINDOW 3 -37 91 Left 0
WINDOW 123 0 0 Left 0
WINDOW 39 0 0 Left 0
SYMATTR InstName Vload
SYMATTR Value 0
SYMBOL bv 96 400 R270
WINDOW 0 12 96 VTop 0
WINDOW 3 -32 56 VBottom 0
SYMATTR InstName B1
SYMATTR Value V=4000*I(Vload)
SYMBOL voltage 176 544 R90
WINDOW 0 -20 93 VRight 0
WINDOW 3 56 -138 VRight 0
WINDOW 123 0 0 Left 0
WINDOW 39 0 0 Left 0
SYMATTR InstName V10M
SYMATTR Value PULSE(0 1 0 50n 50n 0n 100n 2)
SYMBOL voltage 0 272 R0
WINDOW 123 0 0 Left 0
WINDOW 39 0 0 Left 0
SYMATTR InstName V1
SYMATTR Value 0
SYMBOL xtal_param 160 304 R0
SYMATTR InstName X1
TEXT 160 568 Left 0 !.tran 0 20m 200n 1p
TEXT 72 336 Left 0 ;Feedback Circuit
TEXT 40 488 Left 0 ;Startup Circuit
