Version 4
SHEET 1 880 680
WIRE 320 144 192 144
WIRE 144 176 48 176
WIRE 192 256 192 208
WIRE 192 256 48 256
WIRE 320 256 320 224
WIRE 320 256 192 256
WIRE 192 288 192 256
FLAG 192 288 0
SYMBOL SBORKA\\OPTO\\S6045_1 176 144 R0
SYMATTR SpiceLine k=1
SYMATTR InstName U1
SYMBOL voltage 48 160 R0
WINDOW 123 0 0 Left 0
WINDOW 39 0 0 Left 0
SYMATTR InstName V1
SYMATTR Value 1m
SYMBOL voltage 320 128 R0
WINDOW 123 0 0 Left 0
WINDOW 39 0 0 Left 0
SYMATTR InstName V2
SYMATTR Value 20
TEXT 24 312 Left 0 !.dc v2 0 200 10
