* Library was created by AVX, version 1.1 

* The library includes all available AVX capacitors components from Tantalum division.
* There are included NOJ and NOS Niobium Oxide capacitors.

* Niobium oxide capacitors are manufactured and sold under patent license from 
* Cabot Corporation, Boyertown, Pennsylvania U.S.A.

* NOTICE: Specifications are subject to change without notice.  
* Contact your nearest AVX Sales Office for the latest specifications.  
* All statements, information and data given herein are believed to be accurate 
* and reliable, 
* but are presented without guarantee, warranty, or responsibility of any kind, 
* expressed or implied.  
* Statements or suggestions concerning possible use of our product are made 
* without responsibility or warranty that any such use is free of patent 
* infringement and are not recommendations to infringe any patent.
* The user should not assume that all safety measures are indicated or that 
* other measures are indicated or that measures may not be required.  
* Specifications are typical and may not apply to all applications.

.SUBCKT NOJA106K006R 1 9

*parasitic inductance
Lesl 1 2 1.800000e-009
Rels 1 2 10

*leakage current & reverse bias effects
Rp 2 9 5.500000e+006
Dp 9 2 DFWD

*RC-ladder model of frequency effects
R1 2 3 RMOD1 2.360461e+000
C1 2 3 CMOD1 1.982308e-004
R2 3 4 RMOD2 5.325634e-001
C2 4 9 CMOD2 3.237240e-007
R3 4 5 RMOD3 2.540084e-001
C3 5 9 CMOD3 6.474480e-007
R4 5 6 RMOD4 1.900901e-001
C4 6 9 CMOD4 1.294896e-006
R5 6 7 RMOD5 6.680512e-001
C5 7 9 CMOD5 2.589792e-006
R6 7 8 RMOD6 2.715751e+000
C6 8 9 CMOD6 5.179584e-006

.MODEL CMOD1 CAP (T_MEASURED=25 TC1=-7.923511e-003 TC2=1.357800e-005)
.MODEL CMOD2 CAP (T_MEASURED=25 TC1=1.194409e-003 TC2=1.821000e-006)
.MODEL CMOD3 CAP (T_MEASURED=25 TC1=1.194409e-003 TC2=1.821000e-006)
.MODEL CMOD4 CAP (T_MEASURED=25 TC1=1.194409e-003 TC2=1.821000e-006)
.MODEL CMOD5 CAP (T_MEASURED=25 TC1=1.194409e-003 TC2=1.821000e-006)
.MODEL CMOD6 CAP (T_MEASURED=25 TC1=1.194409e-003 TC2=1.821000e-006)
.MODEL RMOD1 RES (T_MEASURED=25 TC1=1.236389e-002 TC2=1.826170e-004)
.MODEL RMOD2 RES (T_MEASURED=25 TC1=-7.418439e-003 TC2=3.494900e-005)
.MODEL RMOD3 RES (T_MEASURED=25 TC1=-5.554650e-003 TC2=9.656000e-006)
.MODEL RMOD4 RES (T_MEASURED=25 TC1=-5.554650e-003 TC2=9.656000e-006)
.MODEL RMOD5 RES (T_MEASURED=25 TC1=-5.554650e-003 TC2=9.656000e-006)
.MODEL RMOD6 RES (T_MEASURED=25 TC1=-5.554650e-003 TC2=9.656000e-006)
.MODEL DFWD D (RS=0.1 IS=8e-7 N=2.5 XTI=0 EG=0.1)

.ENDS

.SUBCKT NOJA156K004R 1 9

*parasitic inductance
Lesl 1 2 1.800000e-009
Rels 1 2 10

*leakage current & reverse bias effects
Rp 2 9 3.666667e+006
Dp 9 2 DFWD

*RC-ladder model of frequency effects
R1 2 3 RMOD1 9.006481e-001
C1 2 3 CMOD1 3.282232e-004
R2 3 4 RMOD2 7.260856e-001
C2 4 9 CMOD2 4.845877e-007
R3 4 5 RMOD3 2.916469e-001
C3 5 9 CMOD3 9.691754e-007
R4 5 6 RMOD4 5.316786e-002
C4 6 9 CMOD4 1.938351e-006
R5 6 7 RMOD5 5.853149e-001
C5 7 9 CMOD5 3.876702e-006
R6 7 8 RMOD6 2.139353e+000
C6 8 9 CMOD6 7.753404e-006

.MODEL CMOD1 CAP (T_MEASURED=25 TC1=-7.923511e-003 TC2=1.357800e-005)
.MODEL CMOD2 CAP (T_MEASURED=25 TC1=1.194409e-003 TC2=1.821000e-006)
.MODEL CMOD3 CAP (T_MEASURED=25 TC1=1.194409e-003 TC2=1.821000e-006)
.MODEL CMOD4 CAP (T_MEASURED=25 TC1=1.194409e-003 TC2=1.821000e-006)
.MODEL CMOD5 CAP (T_MEASURED=25 TC1=1.194409e-003 TC2=1.821000e-006)
.MODEL CMOD6 CAP (T_MEASURED=25 TC1=1.194409e-003 TC2=1.821000e-006)
.MODEL RMOD1 RES (T_MEASURED=25 TC1=1.236389e-002 TC2=1.826170e-004)
.MODEL RMOD2 RES (T_MEASURED=25 TC1=-7.418439e-003 TC2=3.494900e-005)
.MODEL RMOD3 RES (T_MEASURED=25 TC1=-5.554650e-003 TC2=9.656000e-006)
.MODEL RMOD4 RES (T_MEASURED=25 TC1=-5.554650e-003 TC2=9.656000e-006)
.MODEL RMOD5 RES (T_MEASURED=25 TC1=-5.554650e-003 TC2=9.656000e-006)
.MODEL RMOD6 RES (T_MEASURED=25 TC1=-5.554650e-003 TC2=9.656000e-006)
.MODEL DFWD D (RS=0.1 IS=8e-8 N=1.5 XTI=0 EG=0.1)

.ENDS


.SUBCKT NOJB226K004R 1 9

*parasitic inductance
Lesl 1 2 1.800000e-009
Rels 1 2 10

*leakage current & reverse bias effects
Rp 2 9 2.500000e+006
Dp 9 2 DFWD

*RC-ladder model of frequency effects
R1 2 3 RMOD1 4.095299e-001
C1 2 3 CMOD1 1.168304e-003
R2 3 4 RMOD2 6.134683e-001
C2 4 9 CMOD2 7.106840e-007
R3 4 5 RMOD3 1.610637e-001
C3 5 9 CMOD3 1.421368e-006
R4 5 6 RMOD4 3.768581e-003
C4 6 9 CMOD4 2.842736e-006
R5 6 7 RMOD5 3.949032e-001
C5 7 9 CMOD5 5.685472e-006
R6 7 8 RMOD6 9.761694e-001
C6 8 9 CMOD6 1.137094e-005

.MODEL CMOD1 CAP (T_MEASURED=25 TC1=-7.923511e-003 TC2=1.357800e-005)
.MODEL CMOD2 CAP (T_MEASURED=25 TC1=1.194409e-003 TC2=1.821000e-006)
.MODEL CMOD3 CAP (T_MEASURED=25 TC1=1.194409e-003 TC2=1.821000e-006)
.MODEL CMOD4 CAP (T_MEASURED=25 TC1=1.194409e-003 TC2=1.821000e-006)
.MODEL CMOD5 CAP (T_MEASURED=25 TC1=1.194409e-003 TC2=1.821000e-006)
.MODEL CMOD6 CAP (T_MEASURED=25 TC1=1.194409e-003 TC2=1.821000e-006)
.MODEL RMOD1 RES (T_MEASURED=25 TC1=1.236389e-002 TC2=1.826170e-004)
.MODEL RMOD2 RES (T_MEASURED=25 TC1=-7.418439e-003 TC2=3.494900e-005)
.MODEL RMOD3 RES (T_MEASURED=25 TC1=-5.554650e-003 TC2=9.656000e-006)
.MODEL RMOD4 RES (T_MEASURED=25 TC1=-5.554650e-003 TC2=9.656000e-006)
.MODEL RMOD5 RES (T_MEASURED=25 TC1=-5.554650e-003 TC2=9.656000e-006)
.MODEL RMOD6 RES (T_MEASURED=25 TC1=-5.554650e-003 TC2=9.656000e-006)
.MODEL DFWD D (RS=0.1 IS=8e-8 N=1.5 XTI=0 EG=0.1)

.ENDS

.SUBCKT NOJB226K006R 1 9

*parasitic inductance
Lesl 1 2 1.800000e-009
Rels 1 2 10

*leakage current & reverse bias effects
Rp 2 9 2.500000e+006
Dp 9 2 DFWD

*RC-ladder model of frequency effects
R1 2 3 RMOD1 8.324468e-001
C1 2 3 CMOD1 6.641378e-004
R2 3 4 RMOD2 3.096864e-001
C2 4 9 CMOD2 7.119455e-007
R3 4 5 RMOD3 1.555671e-001
C3 5 9 CMOD3 1.423891e-006
R4 5 6 RMOD4 8.813696e-002
C4 6 9 CMOD4 2.847782e-006
R5 6 7 RMOD5 3.174619e-001
C5 7 9 CMOD5 5.695564e-006
R6 7 8 RMOD6 1.271731e+000
C6 8 9 CMOD6 1.139113e-005

.MODEL CMOD1 CAP (T_MEASURED=25 TC1=-7.923511e-003 TC2=1.357800e-005)
.MODEL CMOD2 CAP (T_MEASURED=25 TC1=1.194409e-003 TC2=1.821000e-006)
.MODEL CMOD3 CAP (T_MEASURED=25 TC1=1.194409e-003 TC2=1.821000e-006)
.MODEL CMOD4 CAP (T_MEASURED=25 TC1=1.194409e-003 TC2=1.821000e-006)
.MODEL CMOD5 CAP (T_MEASURED=25 TC1=1.194409e-003 TC2=1.821000e-006)
.MODEL CMOD6 CAP (T_MEASURED=25 TC1=1.194409e-003 TC2=1.821000e-006)
.MODEL RMOD1 RES (T_MEASURED=25 TC1=1.236389e-002 TC2=1.826170e-004)
.MODEL RMOD2 RES (T_MEASURED=25 TC1=-7.418439e-003 TC2=3.494900e-005)
.MODEL RMOD3 RES (T_MEASURED=25 TC1=-5.554650e-003 TC2=9.656000e-006)
.MODEL RMOD4 RES (T_MEASURED=25 TC1=-5.554650e-003 TC2=9.656000e-006)
.MODEL RMOD5 RES (T_MEASURED=25 TC1=-5.554650e-003 TC2=9.656000e-006)
.MODEL RMOD6 RES (T_MEASURED=25 TC1=-5.554650e-003 TC2=9.656000e-006)
.MODEL DFWD D (RS=0.1 IS=8e-7 N=2.5 XTI=0 EG=0.1)

.ENDS

.SUBCKT NOJB336K004R 1 9

*parasitic inductance
Lesl 1 2 1.800000e-009
Rels 1 2 10

*leakage current & reverse bias effects
Rp 2 9 1.666667e+006
Dp 9 2 DFWD

*RC-ladder model of frequency effects
R1 2 3 RMOD1 3.070638e-001
C1 2 3 CMOD1 1.883807e-003
R2 3 4 RMOD2 2.818149e-001
C2 4 9 CMOD2 1.066593e-006
R3 4 5 RMOD3 6.773845e-002
C3 5 9 CMOD3 2.133186e-006
R4 5 6 RMOD4 7.488437e-002
C4 6 9 CMOD4 4.266373e-006
R5 6 7 RMOD5 1.706311e-001
C5 7 9 CMOD5 8.532746e-006
R6 7 8 RMOD6 6.185175e-001
C6 8 9 CMOD6 1.706549e-005

.MODEL CMOD1 CAP (T_MEASURED=25 TC1=-7.923511e-003 TC2=1.357800e-005)
.MODEL CMOD2 CAP (T_MEASURED=25 TC1=1.194409e-003 TC2=1.821000e-006)
.MODEL CMOD3 CAP (T_MEASURED=25 TC1=1.194409e-003 TC2=1.821000e-006)
.MODEL CMOD4 CAP (T_MEASURED=25 TC1=1.194409e-003 TC2=1.821000e-006)
.MODEL CMOD5 CAP (T_MEASURED=25 TC1=1.194409e-003 TC2=1.821000e-006)
.MODEL CMOD6 CAP (T_MEASURED=25 TC1=1.194409e-003 TC2=1.821000e-006)
.MODEL RMOD1 RES (T_MEASURED=25 TC1=1.236389e-002 TC2=1.826170e-004)
.MODEL RMOD2 RES (T_MEASURED=25 TC1=-7.418439e-003 TC2=3.494900e-005)
.MODEL RMOD3 RES (T_MEASURED=25 TC1=-5.554650e-003 TC2=9.656000e-006)
.MODEL RMOD4 RES (T_MEASURED=25 TC1=-5.554650e-003 TC2=9.656000e-006)
.MODEL RMOD5 RES (T_MEASURED=25 TC1=-5.554650e-003 TC2=9.656000e-006)
.MODEL RMOD6 RES (T_MEASURED=25 TC1=-5.554650e-003 TC2=9.656000e-006)
.MODEL DFWD D (RS=0.1 IS=8e-8 N=1.5 XTI=0 EG=0.1)

.ENDS

.SUBCKT NOJC336K006R 1 9

*parasitic inductance
Lesl 1 2 2.200000e-009
Rels 1 2 10

*leakage current & reverse bias effects
Rp 2 9 1.666667e+006
Dp 9 2 DFWD

*RC-ladder model of frequency effects
R1 2 3 RMOD1 9.431455e-001
C1 2 3 CMOD1 1.380129e-003
R2 3 4 RMOD2 3.819532e-001
C2 4 9 CMOD2 1.074225e-006
R3 4 5 RMOD3 1.406209e-003
C3 5 9 CMOD3 2.148450e-006
R4 5 6 RMOD4 2.455763e-003
C4 6 9 CMOD4 4.296901e-006
R5 6 7 RMOD5 2.110851e-001
C5 7 9 CMOD5 8.593802e-006
R6 7 8 RMOD6 5.489976e-001
C6 8 9 CMOD6 1.718760e-005

.MODEL CMOD1 CAP (T_MEASURED=25 TC1=-7.923511e-003 TC2=1.357800e-005)
.MODEL CMOD2 CAP (T_MEASURED=25 TC1=1.194409e-003 TC2=1.821000e-006)
.MODEL CMOD3 CAP (T_MEASURED=25 TC1=1.194409e-003 TC2=1.821000e-006)
.MODEL CMOD4 CAP (T_MEASURED=25 TC1=1.194409e-003 TC2=1.821000e-006)
.MODEL CMOD5 CAP (T_MEASURED=25 TC1=1.194409e-003 TC2=1.821000e-006)
.MODEL CMOD6 CAP (T_MEASURED=25 TC1=1.194409e-003 TC2=1.821000e-006)
.MODEL RMOD1 RES (T_MEASURED=25 TC1=1.236389e-002 TC2=1.826170e-004)
.MODEL RMOD2 RES (T_MEASURED=25 TC1=-7.418439e-003 TC2=3.494900e-005)
.MODEL RMOD3 RES (T_MEASURED=25 TC1=-5.554650e-003 TC2=9.656000e-006)
.MODEL RMOD4 RES (T_MEASURED=25 TC1=-5.554650e-003 TC2=9.656000e-006)
.MODEL RMOD5 RES (T_MEASURED=25 TC1=-5.554650e-003 TC2=9.656000e-006)
.MODEL RMOD6 RES (T_MEASURED=25 TC1=-5.554650e-003 TC2=9.656000e-006)
.MODEL DFWD D (RS=0.1 IS=8e-7 N=2.5 XTI=0 EG=0.1)

.ENDS

.SUBCKT NOJB476K004R 1 9

*parasitic inductance
Lesl 1 2 1.800000e-009
Rels 1 2 10

*leakage current & reverse bias effects
Rp 2 9 1.170213e+006
Dp 9 2 DFWD

*RC-ladder model of frequency effects
R1 2 3 RMOD1 4.333308e-001
C1 2 3 CMOD1 1.679560e-003
R2 3 4 RMOD2 2.102583e-001
C2 4 9 CMOD2 1.524592e-006
R3 4 5 RMOD3 7.251564e-002
C3 5 9 CMOD3 3.049184e-006
R4 5 6 RMOD4 8.461571e-002
C4 6 9 CMOD4 6.098368e-006
R5 6 7 RMOD5 2.703059e-001
C5 7 9 CMOD5 1.219674e-005
R6 7 8 RMOD6 1.228408e+000
C6 8 9 CMOD6 2.439347e-005

.MODEL CMOD1 CAP (T_MEASURED=25 TC1=-7.923511e-003 TC2=1.357800e-005)
.MODEL CMOD2 CAP (T_MEASURED=25 TC1=1.194409e-003 TC2=1.821000e-006)
.MODEL CMOD3 CAP (T_MEASURED=25 TC1=1.194409e-003 TC2=1.821000e-006)
.MODEL CMOD4 CAP (T_MEASURED=25 TC1=1.194409e-003 TC2=1.821000e-006)
.MODEL CMOD5 CAP (T_MEASURED=25 TC1=1.194409e-003 TC2=1.821000e-006)
.MODEL CMOD6 CAP (T_MEASURED=25 TC1=1.194409e-003 TC2=1.821000e-006)
.MODEL RMOD1 RES (T_MEASURED=25 TC1=1.236389e-002 TC2=1.826170e-004)
.MODEL RMOD2 RES (T_MEASURED=25 TC1=-7.418439e-003 TC2=3.494900e-005)
.MODEL RMOD3 RES (T_MEASURED=25 TC1=-5.554650e-003 TC2=9.656000e-006)
.MODEL RMOD4 RES (T_MEASURED=25 TC1=-5.554650e-003 TC2=9.656000e-006)
.MODEL RMOD5 RES (T_MEASURED=25 TC1=-5.554650e-003 TC2=9.656000e-006)
.MODEL RMOD6 RES (T_MEASURED=25 TC1=-5.554650e-003 TC2=9.656000e-006)
.MODEL DFWD D (RS=0.1 IS=8e-8 N=1.5 XTI=0 EG=0.1)

.ENDS

.SUBCKT NOJC476K006R 1 9

*parasitic inductance
Lesl 1 2 2.200000e-009
Rels 1 2 10

*leakage current & reverse bias effects
Rp 2 9 1.170213e+006
Dp 9 2 DFWD

*RC-ladder model of frequency effects
R1 2 3 RMOD1 3.652184e-001
C1 2 3 CMOD1 1.824319e-003
R2 3 4 RMOD2 2.859730e-001
C2 4 9 CMOD2 1.520924e-006
R3 4 5 RMOD3 1.220000e-004
C3 5 9 CMOD3 3.041848e-006
R4 5 6 RMOD4 1.220000e-004
C4 6 9 CMOD4 6.083695e-006
R5 6 7 RMOD5 1.670616e-001
C5 7 9 CMOD5 1.216739e-005
R6 7 8 RMOD6 6.201703e-001
C6 8 9 CMOD6 2.433478e-005

.MODEL CMOD1 CAP (T_MEASURED=25 TC1=-7.923511e-003 TC2=1.357800e-005)
.MODEL CMOD2 CAP (T_MEASURED=25 TC1=1.194409e-003 TC2=1.821000e-006)
.MODEL CMOD3 CAP (T_MEASURED=25 TC1=1.194409e-003 TC2=1.821000e-006)
.MODEL CMOD4 CAP (T_MEASURED=25 TC1=1.194409e-003 TC2=1.821000e-006)
.MODEL CMOD5 CAP (T_MEASURED=25 TC1=1.194409e-003 TC2=1.821000e-006)
.MODEL CMOD6 CAP (T_MEASURED=25 TC1=1.194409e-003 TC2=1.821000e-006)
.MODEL RMOD1 RES (T_MEASURED=25 TC1=1.236389e-002 TC2=1.826170e-004)
.MODEL RMOD2 RES (T_MEASURED=25 TC1=-7.418439e-003 TC2=3.494900e-005)
.MODEL RMOD3 RES (T_MEASURED=25 TC1=-5.554650e-003 TC2=9.656000e-006)
.MODEL RMOD4 RES (T_MEASURED=25 TC1=-5.554650e-003 TC2=9.656000e-006)
.MODEL RMOD5 RES (T_MEASURED=25 TC1=-5.554650e-003 TC2=9.656000e-006)
.MODEL RMOD6 RES (T_MEASURED=25 TC1=-5.554650e-003 TC2=9.656000e-006)
.MODEL DFWD D (RS=0.1 IS=8e-7 N=2.5 XTI=0 EG=0.1)

.ENDS

.SUBCKT NOJC686K004R 1 9

*parasitic inductance
Lesl 1 2 2.200000e-009
Rels 1 2 10

*leakage current & reverse bias effects
Rp 2 9 8.088235e+005
Dp 9 2 DFWD

*RC-ladder model of frequency effects
R1 2 3 RMOD1 2.784590e-001
C1 2 3 CMOD1 3.090886e-003
R2 3 4 RMOD2 1.824844e-001
C2 4 9 CMOD2 2.203174e-006
R3 4 5 RMOD3 1.220000e-004
C3 5 9 CMOD3 4.406349e-006
R4 5 6 RMOD4 3.788793e-002
C4 6 9 CMOD4 8.812698e-006
R5 6 7 RMOD5 1.042008e-001
C5 7 9 CMOD5 1.762540e-005
R6 7 8 RMOD6 3.466920e-001
C6 8 9 CMOD6 3.525079e-005

.MODEL CMOD1 CAP (T_MEASURED=25 TC1=-7.923511e-003 TC2=1.357800e-005)
.MODEL CMOD2 CAP (T_MEASURED=25 TC1=1.194409e-003 TC2=1.821000e-006)
.MODEL CMOD3 CAP (T_MEASURED=25 TC1=1.194409e-003 TC2=1.821000e-006)
.MODEL CMOD4 CAP (T_MEASURED=25 TC1=1.194409e-003 TC2=1.821000e-006)
.MODEL CMOD5 CAP (T_MEASURED=25 TC1=1.194409e-003 TC2=1.821000e-006)
.MODEL CMOD6 CAP (T_MEASURED=25 TC1=1.194409e-003 TC2=1.821000e-006)
.MODEL RMOD1 RES (T_MEASURED=25 TC1=1.236389e-002 TC2=1.826170e-004)
.MODEL RMOD2 RES (T_MEASURED=25 TC1=-7.418439e-003 TC2=3.494900e-005)
.MODEL RMOD3 RES (T_MEASURED=25 TC1=-5.554650e-003 TC2=9.656000e-006)
.MODEL RMOD4 RES (T_MEASURED=25 TC1=-5.554650e-003 TC2=9.656000e-006)
.MODEL RMOD5 RES (T_MEASURED=25 TC1=-5.554650e-003 TC2=9.656000e-006)
.MODEL RMOD6 RES (T_MEASURED=25 TC1=-5.554650e-003 TC2=9.656000e-006)
.MODEL DFWD D (RS=0.1 IS=8e-8 N=1.5 XTI=0 EG=0.1)

.ENDS

.SUBCKT NOJC686K006R 1 9

*parasitic inductance
Lesl 1 2 2.200000e-009
Rels 1 2 10

*leakage current & reverse bias effects
Rp 2 9 8.088235e+005
Dp 9 2 DFWD

*RC-ladder model of frequency effects
R1 2 3 RMOD1 2.532385e-001
C1 2 3 CMOD1 3.392309e-003
R2 3 4 RMOD2 1.794260e-001
C2 4 9 CMOD2 2.202945e-006
R3 4 5 RMOD3 1.220000e-004
C3 5 9 CMOD3 4.405890e-006
R4 5 6 RMOD4 3.597640e-002
C4 6 9 CMOD4 8.811780e-006
R5 6 7 RMOD5 1.129520e-001
C5 7 9 CMOD5 1.762356e-005
R6 7 8 RMOD6 3.517094e-001
C6 8 9 CMOD6 3.524712e-005

.MODEL CMOD1 CAP (T_MEASURED=25 TC1=-7.923511e-003 TC2=1.357800e-005)
.MODEL CMOD2 CAP (T_MEASURED=25 TC1=1.194409e-003 TC2=1.821000e-006)
.MODEL CMOD3 CAP (T_MEASURED=25 TC1=1.194409e-003 TC2=1.821000e-006)
.MODEL CMOD4 CAP (T_MEASURED=25 TC1=1.194409e-003 TC2=1.821000e-006)
.MODEL CMOD5 CAP (T_MEASURED=25 TC1=1.194409e-003 TC2=1.821000e-006)
.MODEL CMOD6 CAP (T_MEASURED=25 TC1=1.194409e-003 TC2=1.821000e-006)
.MODEL RMOD1 RES (T_MEASURED=25 TC1=1.236389e-002 TC2=1.826170e-004)
.MODEL RMOD2 RES (T_MEASURED=25 TC1=-7.418439e-003 TC2=3.494900e-005)
.MODEL RMOD3 RES (T_MEASURED=25 TC1=-5.554650e-003 TC2=9.656000e-006)
.MODEL RMOD4 RES (T_MEASURED=25 TC1=-5.554650e-003 TC2=9.656000e-006)
.MODEL RMOD5 RES (T_MEASURED=25 TC1=-5.554650e-003 TC2=9.656000e-006)
.MODEL RMOD6 RES (T_MEASURED=25 TC1=-5.554650e-003 TC2=9.656000e-006)
.MODEL DFWD D (RS=0.1 IS=8e-7 N=2.5 XTI=0 EG=0.1)

.ENDS

.SUBCKT NOSC107K004R0150 1 9

*parasitic inductance
Lesl 1 2 2.200000e-009
Rels 1 2 10

*leakage current & reverse bias effects
Rp 2 9 5.500000e+005
Dp 9 2 DFWD

*RC-ladder model of frequency effects
R1 2 3 RMOD1 1.898209e-001
C1 2 3 CMOD1 5.301690e-003
R2 3 4 RMOD2 8.216630e-002
C2 4 9 CMOD2 3.247132e-006
R3 4 5 RMOD3 1.100000e-004
C3 5 9 CMOD3 6.494265e-006
R4 5 6 RMOD4 4.982806e-002
C4 6 9 CMOD4 1.298853e-005
R5 6 7 RMOD5 7.307005e-002
C5 7 9 CMOD5 2.597706e-005
R6 7 8 RMOD6 3.159482e-001
C6 8 9 CMOD6 5.195412e-005

.MODEL CMOD1 CAP (T_MEASURED=25 TC1=-7.923511e-003 TC2=1.357800e-005)
.MODEL CMOD2 CAP (T_MEASURED=25 TC1=1.194409e-003 TC2=1.821000e-006)
.MODEL CMOD3 CAP (T_MEASURED=25 TC1=1.194409e-003 TC2=1.821000e-006)
.MODEL CMOD4 CAP (T_MEASURED=25 TC1=1.194409e-003 TC2=1.821000e-006)
.MODEL CMOD5 CAP (T_MEASURED=25 TC1=1.194409e-003 TC2=1.821000e-006)
.MODEL CMOD6 CAP (T_MEASURED=25 TC1=1.194409e-003 TC2=1.821000e-006)
.MODEL RMOD1 RES (T_MEASURED=25 TC1=1.236389e-002 TC2=1.826170e-004)
.MODEL RMOD2 RES (T_MEASURED=25 TC1=-7.418439e-003 TC2=3.494900e-005)
.MODEL RMOD3 RES (T_MEASURED=25 TC1=-5.554650e-003 TC2=9.656000e-006)
.MODEL RMOD4 RES (T_MEASURED=25 TC1=-5.554650e-003 TC2=9.656000e-006)
.MODEL RMOD5 RES (T_MEASURED=25 TC1=-5.554650e-003 TC2=9.656000e-006)
.MODEL RMOD6 RES (T_MEASURED=25 TC1=-5.554650e-003 TC2=9.656000e-006)
.MODEL DFWD D (RS=0.1 IS=8e-8 N=1.5 XTI=0 EG=0.1)

.ENDS

.SUBCKT NOJC107K004R 1 9

*parasitic inductance
Lesl 1 2 2.200000e-009
Rels 1 2 10

*leakage current & reverse bias effects
Rp 2 9 5.500000e+005
Dp 9 2 DFWD

*RC-ladder model of frequency effects
R1 2 3 RMOD1 2.105287e-001
C1 2 3 CMOD1 5.301690e-003
R2 3 4 RMOD2 9.112990e-002
C2 4 9 CMOD2 3.247132e-006
R3 4 5 RMOD3 1.220000e-004
C3 5 9 CMOD3 6.494265e-006
R4 5 6 RMOD4 5.526385e-002
C4 6 9 CMOD4 1.298853e-005
R5 6 7 RMOD5 8.104133e-002
C5 7 9 CMOD5 2.597706e-005
R6 7 8 RMOD6 3.504153e-001
C6 8 9 CMOD6 5.195412e-005

.MODEL CMOD1 CAP (T_MEASURED=25 TC1=-7.923511e-003 TC2=1.357800e-005)
.MODEL CMOD2 CAP (T_MEASURED=25 TC1=1.194409e-003 TC2=1.821000e-006)
.MODEL CMOD3 CAP (T_MEASURED=25 TC1=1.194409e-003 TC2=1.821000e-006)
.MODEL CMOD4 CAP (T_MEASURED=25 TC1=1.194409e-003 TC2=1.821000e-006)
.MODEL CMOD5 CAP (T_MEASURED=25 TC1=1.194409e-003 TC2=1.821000e-006)
.MODEL CMOD6 CAP (T_MEASURED=25 TC1=1.194409e-003 TC2=1.821000e-006)
.MODEL RMOD1 RES (T_MEASURED=25 TC1=1.236389e-002 TC2=1.826170e-004)
.MODEL RMOD2 RES (T_MEASURED=25 TC1=-7.418439e-003 TC2=3.494900e-005)
.MODEL RMOD3 RES (T_MEASURED=25 TC1=-5.554650e-003 TC2=9.656000e-006)
.MODEL RMOD4 RES (T_MEASURED=25 TC1=-5.554650e-003 TC2=9.656000e-006)
.MODEL RMOD5 RES (T_MEASURED=25 TC1=-5.554650e-003 TC2=9.656000e-006)
.MODEL RMOD6 RES (T_MEASURED=25 TC1=-5.554650e-003 TC2=9.656000e-006)
.MODEL DFWD D (RS=0.1 IS=8e-8 N=1.5 XTI=0 EG=0.1)

.ENDS

.SUBCKT NOJD107K006R 1 9

*parasitic inductance
Lesl 1 2 2.400000e-009
Rels 1 2 10

*leakage current & reverse bias effects
Rp 2 9 5.500000e+005
Dp 9 2 DFWD

*RC-ladder model of frequency effects
R1 2 3 RMOD1 1.608659e-001
C1 2 3 CMOD1 4.423524e-003
R2 3 4 RMOD2 7.267449e-002
C2 4 9 CMOD2 3.241763e-006
R3 4 5 RMOD3 2.279008e-002
C3 5 9 CMOD3 6.483525e-006
R4 5 6 RMOD4 3.919694e-003
C4 6 9 CMOD4 1.296705e-005
R5 6 7 RMOD5 4.652260e-002
C5 7 9 CMOD5 2.593410e-005
R6 7 8 RMOD6 1.785776e-001
C6 8 9 CMOD6 5.186820e-005

.MODEL CMOD1 CAP (T_MEASURED=25 TC1=-7.923511e-003 TC2=1.357800e-005)
.MODEL CMOD2 CAP (T_MEASURED=25 TC1=1.194409e-003 TC2=1.821000e-006)
.MODEL CMOD3 CAP (T_MEASURED=25 TC1=1.194409e-003 TC2=1.821000e-006)
.MODEL CMOD4 CAP (T_MEASURED=25 TC1=1.194409e-003 TC2=1.821000e-006)
.MODEL CMOD5 CAP (T_MEASURED=25 TC1=1.194409e-003 TC2=1.821000e-006)
.MODEL CMOD6 CAP (T_MEASURED=25 TC1=1.194409e-003 TC2=1.821000e-006)
.MODEL RMOD1 RES (T_MEASURED=25 TC1=1.236389e-002 TC2=1.826170e-004)
.MODEL RMOD2 RES (T_MEASURED=25 TC1=-7.418439e-003 TC2=3.494900e-005)
.MODEL RMOD3 RES (T_MEASURED=25 TC1=-5.554650e-003 TC2=9.656000e-006)
.MODEL RMOD4 RES (T_MEASURED=25 TC1=-5.554650e-003 TC2=9.656000e-006)
.MODEL RMOD5 RES (T_MEASURED=25 TC1=-5.554650e-003 TC2=9.656000e-006)
.MODEL RMOD6 RES (T_MEASURED=25 TC1=-5.554650e-003 TC2=9.656000e-006)
.MODEL DFWD D (RS=0.1 IS=8e-7 N=2.5 XTI=0 EG=0.1)

.ENDS

.SUBCKT NOSC157K004R0150 1 9

*parasitic inductance
Lesl 1 2 2.200000e-009
Rels 1 2 10

*leakage current & reverse bias effects
Rp 2 9 3.666667e+005
Dp 9 2 DFWD

*RC-ladder model of frequency effects
R1 2 3 RMOD1 1.767080e-001
C1 2 3 CMOD1 5.506303e-003
R2 3 4 RMOD2 1.185492e-001
C2 4 9 CMOD2 4.878133e-006
R3 4 5 RMOD3 1.000000e-004
C3 5 9 CMOD3 9.756266e-006
R4 5 6 RMOD4 2.593576e-002
C4 6 9 CMOD4 1.951253e-005
R5 6 7 RMOD5 9.243573e-002
C5 7 9 CMOD5 3.902506e-005
R6 7 8 RMOD6 2.449329e-001
C6 8 9 CMOD6 7.805013e-005

.MODEL CMOD1 CAP (T_MEASURED=25 TC1=-7.923511e-003 TC2=1.357800e-005)
.MODEL CMOD2 CAP (T_MEASURED=25 TC1=1.194409e-003 TC2=1.821000e-006)
.MODEL CMOD3 CAP (T_MEASURED=25 TC1=1.194409e-003 TC2=1.821000e-006)
.MODEL CMOD4 CAP (T_MEASURED=25 TC1=1.194409e-003 TC2=1.821000e-006)
.MODEL CMOD5 CAP (T_MEASURED=25 TC1=1.194409e-003 TC2=1.821000e-006)
.MODEL CMOD6 CAP (T_MEASURED=25 TC1=1.194409e-003 TC2=1.821000e-006)
.MODEL RMOD1 RES (T_MEASURED=25 TC1=1.236389e-002 TC2=1.826170e-004)
.MODEL RMOD2 RES (T_MEASURED=25 TC1=-7.418439e-003 TC2=3.494900e-005)
.MODEL RMOD3 RES (T_MEASURED=25 TC1=-5.554650e-003 TC2=9.656000e-006)
.MODEL RMOD4 RES (T_MEASURED=25 TC1=-5.554650e-003 TC2=9.656000e-006)
.MODEL RMOD5 RES (T_MEASURED=25 TC1=-5.554650e-003 TC2=9.656000e-006)
.MODEL RMOD6 RES (T_MEASURED=25 TC1=-5.554650e-003 TC2=9.656000e-006)
.MODEL DFWD D (RS=0.1 IS=8e-8 N=1.5 XTI=0 EG=0.1)

.ENDS

.SUBCKT NOJC157K004R 1 9

*parasitic inductance
Lesl 1 2 2.200000e-009
Rels 1 2 10

*leakage current & reverse bias effects
Rp 2 9 3.666667e+005
Dp 9 2 DFWD

*RC-ladder model of frequency effects
R1 2 3 RMOD1 1.979130e-001
C1 2 3 CMOD1 5.506303e-003
R2 3 4 RMOD2 1.327751e-001
C2 4 9 CMOD2 4.878133e-006
R3 4 5 RMOD3 1.120000e-004
C3 5 9 CMOD3 9.756266e-006
R4 5 6 RMOD4 2.904805e-002
C4 6 9 CMOD4 1.951253e-005
R5 6 7 RMOD5 1.035280e-001
C5 7 9 CMOD5 3.902506e-005
R6 7 8 RMOD6 2.743248e-001
C6 8 9 CMOD6 7.805013e-005

.MODEL CMOD1 CAP (T_MEASURED=25 TC1=-7.923511e-003 TC2=1.357800e-005)
.MODEL CMOD2 CAP (T_MEASURED=25 TC1=1.194409e-003 TC2=1.821000e-006)
.MODEL CMOD3 CAP (T_MEASURED=25 TC1=1.194409e-003 TC2=1.821000e-006)
.MODEL CMOD4 CAP (T_MEASURED=25 TC1=1.194409e-003 TC2=1.821000e-006)
.MODEL CMOD5 CAP (T_MEASURED=25 TC1=1.194409e-003 TC2=1.821000e-006)
.MODEL CMOD6 CAP (T_MEASURED=25 TC1=1.194409e-003 TC2=1.821000e-006)
.MODEL RMOD1 RES (T_MEASURED=25 TC1=1.236389e-002 TC2=1.826170e-004)
.MODEL RMOD2 RES (T_MEASURED=25 TC1=-7.418439e-003 TC2=3.494900e-005)
.MODEL RMOD3 RES (T_MEASURED=25 TC1=-5.554650e-003 TC2=9.656000e-006)
.MODEL RMOD4 RES (T_MEASURED=25 TC1=-5.554650e-003 TC2=9.656000e-006)
.MODEL RMOD5 RES (T_MEASURED=25 TC1=-5.554650e-003 TC2=9.656000e-006)
.MODEL RMOD6 RES (T_MEASURED=25 TC1=-5.554650e-003 TC2=9.656000e-006)
.MODEL DFWD D (RS=0.1 IS=8e-8 N=1.5 XTI=0 EG=0.1)

.ENDS

.SUBCKT NOSD227K004R0100 1 9

*parasitic inductance
Lesl 1 2 2.400000e-009
Rels 1 2 10

*leakage current & reverse bias effects
Rp 2 9 2.500000e+005
Dp 9 2 DFWD

*RC-ladder model of frequency effects
R1 2 3 RMOD1 7.942206e-002
C1 2 3 CMOD1 7.637828e-003
R2 3 4 RMOD2 4.566296e-002
C2 4 9 CMOD2 7.132059e-006
R3 4 5 RMOD3 2.602321e-002
C3 5 9 CMOD3 1.426412e-005
R4 5 6 RMOD4 1.100000e-004
C4 6 9 CMOD4 2.852824e-005
R5 6 7 RMOD5 7.344821e-002
C5 7 9 CMOD5 5.705647e-005
R6 7 8 RMOD6 1.538265e-001
C6 8 9 CMOD6 1.141129e-004

.MODEL CMOD1 CAP (T_MEASURED=25 TC1=-7.923511e-003 TC2=1.357800e-005)
.MODEL CMOD2 CAP (T_MEASURED=25 TC1=1.194409e-003 TC2=1.821000e-006)
.MODEL CMOD3 CAP (T_MEASURED=25 TC1=1.194409e-003 TC2=1.821000e-006)
.MODEL CMOD4 CAP (T_MEASURED=25 TC1=1.194409e-003 TC2=1.821000e-006)
.MODEL CMOD5 CAP (T_MEASURED=25 TC1=1.194409e-003 TC2=1.821000e-006)
.MODEL CMOD6 CAP (T_MEASURED=25 TC1=1.194409e-003 TC2=1.821000e-006)
.MODEL RMOD1 RES (T_MEASURED=25 TC1=1.236389e-002 TC2=1.826170e-004)
.MODEL RMOD2 RES (T_MEASURED=25 TC1=-7.418439e-003 TC2=3.494900e-005)
.MODEL RMOD3 RES (T_MEASURED=25 TC1=-5.554650e-003 TC2=9.656000e-006)
.MODEL RMOD4 RES (T_MEASURED=25 TC1=-5.554650e-003 TC2=9.656000e-006)
.MODEL RMOD5 RES (T_MEASURED=25 TC1=-5.554650e-003 TC2=9.656000e-006)
.MODEL RMOD6 RES (T_MEASURED=25 TC1=-5.554650e-003 TC2=9.656000e-006)
.MODEL DFWD D (RS=0.1 IS=8e-8 N=1.5 XTI=0 EG=0.1)

.ENDS

.SUBCKT NOJD227K004R 1 9

*parasitic inductance
Lesl 1 2 2.400000e-009
Rels 1 2 10

*leakage current & reverse bias effects
Rp 2 9 2.500000e+005
Dp 9 2 DFWD

*RC-ladder model of frequency effects
R1 2 3 RMOD1 8.808628e-002
C1 2 3 CMOD1 7.637828e-003
R2 3 4 RMOD2 5.064437e-002
C2 4 9 CMOD2 7.132059e-006
R3 4 5 RMOD3 2.886211e-002
C3 5 9 CMOD3 1.426412e-005
R4 5 6 RMOD4 1.220000e-004
C4 6 9 CMOD4 2.852824e-005
R5 6 7 RMOD5 8.146074e-002
C5 7 9 CMOD5 5.705647e-005
R6 7 8 RMOD6 1.706075e-001
C6 8 9 CMOD6 1.141129e-004

.MODEL CMOD1 CAP (T_MEASURED=25 TC1=-7.923511e-003 TC2=1.357800e-005)
.MODEL CMOD2 CAP (T_MEASURED=25 TC1=1.194409e-003 TC2=1.821000e-006)
.MODEL CMOD3 CAP (T_MEASURED=25 TC1=1.194409e-003 TC2=1.821000e-006)
.MODEL CMOD4 CAP (T_MEASURED=25 TC1=1.194409e-003 TC2=1.821000e-006)
.MODEL CMOD5 CAP (T_MEASURED=25 TC1=1.194409e-003 TC2=1.821000e-006)
.MODEL CMOD6 CAP (T_MEASURED=25 TC1=1.194409e-003 TC2=1.821000e-006)
.MODEL RMOD1 RES (T_MEASURED=25 TC1=1.236389e-002 TC2=1.826170e-004)
.MODEL RMOD2 RES (T_MEASURED=25 TC1=-7.418439e-003 TC2=3.494900e-005)
.MODEL RMOD3 RES (T_MEASURED=25 TC1=-5.554650e-003 TC2=9.656000e-006)
.MODEL RMOD4 RES (T_MEASURED=25 TC1=-5.554650e-003 TC2=9.656000e-006)
.MODEL RMOD5 RES (T_MEASURED=25 TC1=-5.554650e-003 TC2=9.656000e-006)
.MODEL RMOD6 RES (T_MEASURED=25 TC1=-5.554650e-003 TC2=9.656000e-006)
.MODEL DFWD D (RS=0.1 IS=8e-8 N=1.5 XTI=0 EG=0.1)

.ENDS

.SUBCKT NOJE227K006R 1 9

*parasitic inductance
Lesl 1 2 2.500000e-009
Rels 1 2 10

*leakage current & reverse bias effects
Rp 2 9 2.500000e+005
Dp 9 2 DFWD

*RC-ladder model of frequency effects
R1 2 3 RMOD1 2.147936e-001
C1 2 3 CMOD1 4.643002e-003
R2 3 4 RMOD2 1.169299e-001
C2 4 9 CMOD2 7.205893e-006
R3 4 5 RMOD3 3.004184e-002
C3 5 9 CMOD3 1.441179e-005
R4 5 6 RMOD4 1.012881e-001
C4 6 9 CMOD4 2.882357e-005
R5 6 7 RMOD5 5.223892e-002
C5 7 9 CMOD5 5.764714e-005
R6 7 8 RMOD6 4.066147e-001
C6 8 9 CMOD6 1.152943e-004

.MODEL CMOD1 CAP (T_MEASURED=25 TC1=-7.923511e-003 TC2=1.357800e-005)
.MODEL CMOD2 CAP (T_MEASURED=25 TC1=1.194409e-003 TC2=1.821000e-006)
.MODEL CMOD3 CAP (T_MEASURED=25 TC1=1.194409e-003 TC2=1.821000e-006)
.MODEL CMOD4 CAP (T_MEASURED=25 TC1=1.194409e-003 TC2=1.821000e-006)
.MODEL CMOD5 CAP (T_MEASURED=25 TC1=1.194409e-003 TC2=1.821000e-006)
.MODEL CMOD6 CAP (T_MEASURED=25 TC1=1.194409e-003 TC2=1.821000e-006)
.MODEL RMOD1 RES (T_MEASURED=25 TC1=1.236389e-002 TC2=1.826170e-004)
.MODEL RMOD2 RES (T_MEASURED=25 TC1=-7.418439e-003 TC2=3.494900e-005)
.MODEL RMOD3 RES (T_MEASURED=25 TC1=-5.554650e-003 TC2=9.656000e-006)
.MODEL RMOD4 RES (T_MEASURED=25 TC1=-5.554650e-003 TC2=9.656000e-006)
.MODEL RMOD5 RES (T_MEASURED=25 TC1=-5.554650e-003 TC2=9.656000e-006)
.MODEL RMOD6 RES (T_MEASURED=25 TC1=-5.554650e-003 TC2=9.656000e-006)
.MODEL DFWD D (RS=0.1 IS=8e-7 N=2.5 XTI=0 EG=0.1)

.ENDS

.SUBCKT NOSD337K004R0100 1 9

*parasitic inductance
Lesl 1 2 2.400000e-009
Rels 1 2 10

*leakage current & reverse bias effects
Rp 2 9 1.666667e+005
Dp 9 2 DFWD

*RC-ladder model of frequency effects
R1 2 3 RMOD1 9.009808e-002
C1 2 3 CMOD1 1.193414e-002
R2 3 4 RMOD2 4.906056e-002
C2 4 9 CMOD2 1.073467e-005
R3 4 5 RMOD3 1.100000e-004
C3 5 9 CMOD3 2.146934e-005
R4 5 6 RMOD4 1.728643e-002
C4 6 9 CMOD4 4.293869e-005
R5 6 7 RMOD5 4.787830e-002
C5 7 9 CMOD5 8.587737e-005
R6 7 8 RMOD6 1.512007e-001
C6 8 9 CMOD6 1.717547e-004

.MODEL CMOD1 CAP (T_MEASURED=25 TC1=-7.923511e-003 TC2=1.357800e-005)
.MODEL CMOD2 CAP (T_MEASURED=25 TC1=1.194409e-003 TC2=1.821000e-006)
.MODEL CMOD3 CAP (T_MEASURED=25 TC1=1.194409e-003 TC2=1.821000e-006)
.MODEL CMOD4 CAP (T_MEASURED=25 TC1=1.194409e-003 TC2=1.821000e-006)
.MODEL CMOD5 CAP (T_MEASURED=25 TC1=1.194409e-003 TC2=1.821000e-006)
.MODEL CMOD6 CAP (T_MEASURED=25 TC1=1.194409e-003 TC2=1.821000e-006)
.MODEL RMOD1 RES (T_MEASURED=25 TC1=1.236389e-002 TC2=1.826170e-004)
.MODEL RMOD2 RES (T_MEASURED=25 TC1=-7.418439e-003 TC2=3.494900e-005)
.MODEL RMOD3 RES (T_MEASURED=25 TC1=-5.554650e-003 TC2=9.656000e-006)
.MODEL RMOD4 RES (T_MEASURED=25 TC1=-5.554650e-003 TC2=9.656000e-006)
.MODEL RMOD5 RES (T_MEASURED=25 TC1=-5.554650e-003 TC2=9.656000e-006)
.MODEL RMOD6 RES (T_MEASURED=25 TC1=-5.554650e-003 TC2=9.656000e-006)
.MODEL DFWD D (RS=0.1 IS=8e-8 N=1.5 XTI=0 EG=0.1)

.ENDS

.SUBCKT NOJD337K004R 1 9

*parasitic inductance
Lesl 1 2 2.400000e-009
Rels 1 2 10

*leakage current & reverse bias effects
Rp 2 9 1.666667e+005
Dp 9 2 DFWD

*RC-ladder model of frequency effects
R1 2 3 RMOD1 9.992696e-002
C1 2 3 CMOD1 1.193414e-002
R2 3 4 RMOD2 5.441262e-002
C2 4 9 CMOD2 1.073467e-005
R3 4 5 RMOD3 1.220000e-004
C3 5 9 CMOD3 2.146934e-005
R4 5 6 RMOD4 1.917223e-002
C4 6 9 CMOD4 4.293869e-005
R5 6 7 RMOD5 5.310138e-002
C5 7 9 CMOD5 8.587737e-005
R6 7 8 RMOD6 1.676954e-001
C6 8 9 CMOD6 1.717547e-004

.MODEL CMOD1 CAP (T_MEASURED=25 TC1=-7.923511e-003 TC2=1.357800e-005)
.MODEL CMOD2 CAP (T_MEASURED=25 TC1=1.194409e-003 TC2=1.821000e-006)
.MODEL CMOD3 CAP (T_MEASURED=25 TC1=1.194409e-003 TC2=1.821000e-006)
.MODEL CMOD4 CAP (T_MEASURED=25 TC1=1.194409e-003 TC2=1.821000e-006)
.MODEL CMOD5 CAP (T_MEASURED=25 TC1=1.194409e-003 TC2=1.821000e-006)
.MODEL CMOD6 CAP (T_MEASURED=25 TC1=1.194409e-003 TC2=1.821000e-006)
.MODEL RMOD1 RES (T_MEASURED=25 TC1=1.236389e-002 TC2=1.826170e-004)
.MODEL RMOD2 RES (T_MEASURED=25 TC1=-7.418439e-003 TC2=3.494900e-005)
.MODEL RMOD3 RES (T_MEASURED=25 TC1=-5.554650e-003 TC2=9.656000e-006)
.MODEL RMOD4 RES (T_MEASURED=25 TC1=-5.554650e-003 TC2=9.656000e-006)
.MODEL RMOD5 RES (T_MEASURED=25 TC1=-5.554650e-003 TC2=9.656000e-006)
.MODEL RMOD6 RES (T_MEASURED=25 TC1=-5.554650e-003 TC2=9.656000e-006)
.MODEL DFWD D (RS=0.1 IS=8e-8 N=1.5 XTI=0 EG=0.1)

.ENDS

.SUBCKT NOJE337K006R 1 9

*parasitic inductance
Lesl 1 2 2.500000e-009
Rels 1 2 10

*leakage current & reverse bias effects
Rp 2 9 1.666667e+005
Dp 9 2 DFWD

*RC-ladder model of frequency effects
R1 2 3 RMOD1 2.090599e-001
C1 2 3 CMOD1 3.306869e-003
R2 3 4 RMOD2 1.049287e-001
C2 4 9 CMOD2 1.078489e-005
R3 4 5 RMOD3 2.445365e-002
C3 5 9 CMOD3 2.156977e-005
R4 5 6 RMOD4 1.072720e-001
C4 6 9 CMOD4 4.313955e-005
R5 6 7 RMOD5 4.945646e-002
C5 7 9 CMOD5 8.627909e-005
R6 7 8 RMOD6 4.333369e-001
C6 8 9 CMOD6 1.725582e-004

.MODEL CMOD1 CAP (T_MEASURED=25 TC1=-7.923511e-003 TC2=1.357800e-005)