Version 4
SHEET 1 1212 960
WIRE -128 240 -128 208
WIRE -128 352 -128 320
WIRE 16 32 16 0
WIRE 16 144 16 112
WIRE 128 208 -128 208
WIRE 192 0 16 0
WIRE 192 96 192 0
WIRE 192 144 192 96
WIRE 192 304 192 272
WIRE 368 208 256 208
WIRE 368 224 368 208
WIRE 368 304 368 288
WIRE 432 208 368 208
FLAG 192 304 0
FLAG 192 96 VCC
FLAG -128 352 0
FLAG 368 304 0
FLAG 432 208 out
FLAG -128 208 in
FLAG 16 144 0
SYMBOL voltage -128 224 R0
WINDOW 3 24 134 Left 0
WINDOW 123 0 0 Left 0
WINDOW 39 24 98 Left 0
SYMATTR Value PULSE(0 5 0 10n 10n 2u 5u)
SYMATTR SpiceLine Rser=50
SYMATTR InstName V1
SYMBOL cap 352 224 R0
SYMATTR InstName C1
SYMATTR Value 10n
SYMBOL voltage 16 16 R0
SYMATTR InstName V2
SYMATTR Value 10
SYMBOL EXTRA\\MICREL\\GATEDRV\\MIC4422 192 208 R0
SYMATTR InstName U1
TEXT -160 -136 Left 0 !.tran 0 1m 0 5n uic
TEXT -160 -96 Left 0 ;.options plotwinsize=0  ;optional compression off
