Version 4
SHEET 1 1788 680
WIRE 576 16 544 16
WIRE 608 16 576 16
WIRE 720 16 688 16
WIRE 944 16 784 16
WIRE 384 48 368 48
WIRE 816 48 384 48
WIRE 576 80 512 80
WIRE 816 80 816 48
WIRE 816 80 800 80
WIRE 880 80 816 80
WIRE -208 96 -304 96
WIRE -160 96 -208 96
WIRE -144 96 -160 96
WIRE -64 96 -144 96
WIRE -32 96 -64 96
WIRE 512 96 512 80
WIRE 880 96 880 80
WIRE 944 96 944 16
WIRE 960 96 944 96
WIRE 1152 96 1120 96
WIRE 1248 96 1232 96
WIRE 1376 96 1248 96
WIRE 1504 96 1376 96
WIRE 128 112 80 112
WIRE 1376 112 1376 96
WIRE -160 128 -160 96
WIRE -64 128 -64 96
WIRE -32 128 -64 128
WIRE 272 128 240 128
WIRE 816 128 816 80
WIRE 848 128 816 128
WIRE -304 144 -304 96
WIRE -64 144 -64 128
WIRE -32 144 -64 144
WIRE 272 144 272 128
WIRE 512 144 272 144
WIRE 576 144 512 144
WIRE 816 144 800 144
WIRE -208 160 -208 96
WIRE -64 160 -64 144
WIRE 0 176 -16 176
WIRE 960 176 944 176
WIRE 1328 176 1120 176
WIRE -32 192 -32 144
WIRE -16 192 -16 176
WIRE -16 192 -32 192
WIRE 176 192 112 192
WIRE 256 192 240 192
WIRE -16 208 -16 192
WIRE 0 208 -16 208
WIRE 544 208 544 16
WIRE 576 208 544 208
WIRE 816 208 816 144
WIRE 816 208 800 208
WIRE 880 208 880 160
WIRE 880 208 816 208
WIRE -304 240 -304 224
WIRE -256 240 -304 240
WIRE -208 240 -208 224
WIRE -208 240 -256 240
WIRE -160 240 -160 208
WIRE -64 240 -64 224
WIRE -64 240 -160 240
WIRE 80 240 -64 240
WIRE 160 240 80 240
WIRE 256 240 256 192
WIRE 256 240 240 240
WIRE 288 240 256 240
WIRE 368 240 368 48
WIRE 368 240 352 240
WIRE 416 240 368 240
WIRE 448 240 416 240
WIRE 560 240 512 240
WIRE 1504 240 1504 96
WIRE -304 256 -304 240
WIRE -256 256 -256 240
WIRE -160 256 -160 240
WIRE 368 256 368 240
WIRE -208 272 -208 240
WIRE 80 272 80 240
WIRE 416 272 416 240
WIRE 448 272 416 272
WIRE 560 272 560 240
WIRE 560 272 528 272
WIRE 576 272 560 272
WIRE 832 272 800 272
WIRE 1248 272 1248 96
WIRE -64 288 -64 240
WIRE 560 288 560 272
WIRE 832 288 832 272
WIRE 880 288 880 208
WIRE -16 304 -32 304
WIRE 176 320 96 320
WIRE 256 320 256 240
WIRE 256 320 240 320
WIRE -32 336 -32 304
WIRE -16 336 -32 336
WIRE -304 368 -304 336
WIRE -208 368 -208 336
WIRE -208 368 -304 368
WIRE -160 368 -160 336
WIRE -160 368 -208 368
WIRE -96 368 -160 368
WIRE -64 368 -64 352
WIRE -64 368 -96 368
WIRE -32 368 -32 336
WIRE -32 368 -64 368
WIRE 128 368 128 144
WIRE 128 368 -32 368
WIRE 368 368 368 336
WIRE 560 368 560 352
WIRE 560 368 368 368
WIRE 832 368 832 352
WIRE 832 368 560 368
WIRE 880 368 880 352
WIRE 880 368 832 368
WIRE 944 368 944 176
WIRE 944 368 880 368
WIRE 1008 368 944 368
WIRE 1248 368 1248 336
WIRE 1248 368 1088 368
WIRE 1376 368 1376 176
WIRE 1376 368 1248 368
WIRE 1408 368 1376 368
WIRE 1504 368 1504 320
WIRE 1504 368 1488 368
WIRE 560 384 560 368
WIRE 1504 400 1504 368
FLAG 80 272 0
FLAG 512 96 0
FLAG 384 48 V+
FLAG -144 96 T
FLAG -96 368 C
FLAG 512 144 Trg
FLAG 576 16 Out555
FLAG -256 256 0
FLAG 560 384 0
SYMBOL cap -80 160 R0
WINDOW 0 -17 13 Left 0
WINDOW 3 -15 60 Left 0
SYMATTR InstName C1
SYMATTR Value 1n
SYMBOL res -176 112 R0
WINDOW 0 18 90 Left 0
WINDOW 3 18 113 Left 0
SYMATTR InstName R1
SYMATTR Value 330k
SYMBOL cap -80 288 R0
WINDOW 0 -17 13 Left 0
WINDOW 3 -13 51 Left 0
SYMATTR InstName C2
SYMATTR Value 1n
SYMBOL res -176 240 R0
WINDOW 0 36 72 Left 0
WINDOW 3 20 97 Left 0
SYMATTR InstName R2
SYMATTR Value 330k
SYMBOL LED 176 208 R270
WINDOW 0 16 0 VTop 0
WINDOW 3 0 32 Invisible 0
SYMATTR InstName D1
SYMATTR Value TLSV5100RED
SYMATTR Description Diode
SYMATTR Type diode
SYMBOL LED 176 336 R270
WINDOW 0 16 0 VTop 0
WINDOW 3 0 32 Invisible 0
SYMATTR InstName D2
SYMATTR Value TLSV5100RED
SYMATTR Description Diode
SYMATTR Type diode
SYMBOL res 256 224 R90
WINDOW 0 15 104 VBottom 0
WINDOW 3 -10 23 VTop 0
SYMATTR InstName R3
SYMATTR Value 1k
SYMBOL Robertugo\\555_all 736 192 R0
SYMATTR SpiceModel 5b1sw555
SYMATTR InstName U1
SYMBOL res 704 0 R90
WINDOW 0 46 96 VBottom 0
WINDOW 3 16 8 VTop 0
SYMATTR InstName R4
SYMATTR Value 1k
SYMBOL diode 720 32 R270
WINDOW 0 17 2 VTop 0
WINDOW 3 44 78 Invisible 0
SYMATTR InstName D3
SYMATTR Value 1N914
SYMBOL OptoElec\\Led_Triac 1008 112 R0
SYMATTR InstName U2
SYMBOL LED 352 224 R90
WINDOW 0 0 32 VBottom 0
WINDOW 3 72 32 Invisible 0
SYMATTR InstName D4
SYMATTR Value TLSV5100GREEN
SYMATTR Description Diode
SYMATTR Type diode
SYMBOL cap 816 288 R0
WINDOW 0 -17 13 Left 0
WINDOW 3 -26 49 Left 0
SYMATTR InstName C4
SYMATTR Value 10n
SYMBOL polcap 864 288 R0
WINDOW 0 26 13 Left 0
WINDOW 3 24 64 Left 0
SYMATTR InstName C5
SYMATTR Value 1µ
SYMATTR Description Capacitor
SYMATTR Type cap
SYMATTR SpiceLine V=16 Irms=35m Rser=2.8 Lser=0 mfg="Nichicon" pn="UPR1C100MAH" type="Al electrolytic"
SYMBOL Robertugo\\Pote 864 64 R0
WINDOW 0 -34 32 Left 0
WINDOW 3 -31 1 Left 0
WINDOW 123 -16 123 Center 0
SYMATTR InstName P1
SYMATTR Value Rt=1e7
SYMBOL cap 1232 272 R0
WINDOW 0 -17 13 Left 0
WINDOW 3 -26 49 Left 0
SYMATTR InstName C6
SYMATTR Value 10n
SYMBOL Triac_All 1344 112 R0
WINDOW 0 28 0 Right 0
WINDOW 38 14 165 VLeft 0
SYMATTR InstName U3
SYMATTR SpiceModel L6008L6
SYMBOL res 1248 80 R90
WINDOW 0 16 107 VBottom 0
WINDOW 3 -12 26 VTop 0
SYMATTR InstName R8
SYMATTR Value 22
SYMBOL res 1104 352 R90
WINDOW 0 16 120 VBottom 0
WINDOW 3 -12 12 VTop 0
SYMATTR InstName RAisl
SYMATTR Value 1e6
SYMBOL voltage 368 240 R0
WINDOW 0 11 11 Left 0
WINDOW 3 5 109 Left 0
WINDOW 123 0 0 Left 0
SYMATTR InstName Vcc
SYMATTR Value PULSE(0 {VDD} 0 0 0 {t/1.5})
SYMATTR SpiceLine Rser=1 Cpar=100u
SYMBOL voltage 1504 224 R0
WINDOW 3 -38 -122 VRight 0
WINDOW 123 0 0 Left 0
WINDOW 39 0 0 Left 0
WINDOW 0 -17 58 Left 0
SYMATTR Value SINE(0 315 50)
SYMATTR InstName Vac1
SYMBOL Dig_Add\\CD4xxx\\cd4011b 16 48 R0
WINDOW 3 -32 113 Invisible 0
SYMATTR InstName U1a
SYMATTR SpiceLine VDD={VDD}  SPEED=1.0  TRIPDT=5e-9
SYMBOL Dig_Add\\CD4xxx\\cd4011b 176 64 R0
WINDOW 3 -32 113 Invisible 0
SYMATTR InstName U1b
SYMATTR SpiceLine VDD={VDD}  SPEED=1.0  TRIPDT=5e-9
SYMBOL Dig_Add\\CD4xxx\\cd4011b 48 128 R0
WINDOW 3 -32 113 Invisible 0
SYMATTR InstName U1c
SYMATTR SpiceLine VDD={VDD}  SPEED=1.0  TRIPDT=5e-9
SYMBOL Dig_Add\\CD4xxx\\cd4011b 32 256 R0
WINDOW 3 -32 113 Invisible 0
SYMATTR InstName U1d
SYMATTR SpiceLine VDD={VDD}  SPEED=1.0  TRIPDT=5e-9
SYMBOL res 544 256 R90
WINDOW 0 17 101 VBottom 0
WINDOW 3 -11 26 VTop 0
SYMATTR InstName Rr
SYMATTR Value 1e6
SYMBOL cap 544 288 R0
WINDOW 0 24 12 Left 0
SYMATTR InstName C3
SYMATTR Value 100n
SYMBOL zener -224 272 R0
WINDOW 3 24 72 Invisible 0
WINDOW 0 -19 4 Left 0
SYMATTR Value BZX84C12L
SYMATTR InstName D5
SYMBOL zener -192 224 R180
WINDOW 0 20 61 Left 0
WINDOW 3 24 0 Invisible 0
SYMATTR InstName D6
SYMATTR Value BZX84C12L
SYMBOL voltage -304 128 R0
WINDOW 0 -14 59 Left 0
WINDOW 3 -8 -71 Left 0
WINDOW 123 0 0 Left 0
WINDOW 39 0 0 Left 0
SYMATTR InstName Vt1
SYMATTR Value PULSE(0 12 {t/5})
SYMBOL voltage -304 352 R180
WINDOW 0 -13 59 Left 0
WINDOW 3 -169 -42 Left 0
WINDOW 123 0 0 Left 0
WINDOW 39 0 0 Left 0
SYMATTR InstName Vc1
SYMATTR Value PULSE(0 12 {t/6})
SYMBOL ind 1504 352 R90
WINDOW 0 5 56 VBottom 0
WINDOW 3 32 56 VTop 0
SYMATTR InstName L1
SYMATTR Value 125m
SYMBOL diode 512 256 M270
WINDOW 0 17 2 VTop 0
WINDOW 3 44 78 Invisible 0
SYMATTR InstName D7
SYMATTR Value 1N914
TEXT 1088 0 Left 0 !.param VDD=12  t=10
TEXT 824 248 Left 0 ;220u
TEXT 784 0 Left 0 ;P1=2m2 + R 4m7
TEXT 1320 0 Left 0 !.tran {t} startup
TEXT 592 320 Left 0 ;10u
