Version 4
SHEET 1 880 680
WIRE 160 0 128 0
WIRE 272 0 240 0
WIRE 304 0 272 0
WIRE 416 0 384 0
WIRE 128 32 128 0
WIRE 352 128 352 96
WIRE 272 144 272 0
WIRE 320 144 272 144
WIRE 416 160 416 0
WIRE 416 160 384 160
WIRE 496 160 416 160
WIRE 16 176 -32 176
WIRE 48 176 16 176
WIRE 208 176 128 176
WIRE 320 176 208 176
WIRE -320 208 -320 176
WIRE -192 208 -192 176
WIRE -32 208 -32 176
WIRE 352 208 352 192
WIRE -320 320 -320 288
WIRE -192 320 -192 288
WIRE -32 320 -32 288
FLAG -32 320 0
FLAG 352 96 V+
FLAG -192 320 0
FLAG -320 320 0
FLAG -320 176 V+
FLAG -192 176 V-
FLAG 352 208 V-
FLAG 496 160 out
FLAG 128 32 0
FLAG 16 176 in
FLAG 208 176 in1
SYMBOL res 144 16 R270
WINDOW 0 32 56 VTop 2
WINDOW 3 0 56 VBottom 2
SYMATTR InstName R3
SYMATTR Value 10k
SYMBOL voltage -32 192 R0
WINDOW 123 0 0 Left 2
WINDOW 39 0 0 Left 2
SYMATTR InstName V1
SYMATTR Value PULSE(0 0.5 0 .1u .1u 100u 200u)
SYMBOL res 288 16 R270
WINDOW 0 32 56 VTop 2
WINDOW 3 0 56 VBottom 2
SYMATTR InstName R6
SYMATTR Value 47k
SYMBOL voltage -320 192 R0
SYMATTR InstName V2
SYMATTR Value 5
SYMBOL voltage -192 192 R0
SYMATTR InstName V3
SYMATTR Value -5
SYMBOL res 32 192 R270
WINDOW 0 32 56 VTop 2
WINDOW 3 0 56 VBottom 2
SYMATTR InstName R1
SYMATTR Value 1k
SYMBOL Robertugo\\opamp5 352 96 R0
SYMATTR InstName U1
SYMATTR SpiceModel OP2177
TEXT -352 -24 Left 2 !.tran 1m
TEXT -352 8 Left 2 !.options plotwinsize=0
TEXT -352 40 Left 2 !.options gmin=1e-10 abstol=1e-10
