Version 4
SHEET 1 880 680
WIRE 352 -16 352 -32
WIRE 512 -16 512 -32
WIRE -80 16 -128 16
WIRE 48 16 0 16
WIRE 96 16 48 16
WIRE 224 16 176 16
WIRE 352 80 352 64
WIRE 512 80 512 64
WIRE 128 144 128 128
WIRE 48 160 48 16
WIRE 96 160 48 160
WIRE 224 176 224 16
WIRE 224 176 160 176
WIRE 368 176 224 176
WIRE 480 176 368 176
WIRE -224 192 -224 160
WIRE -160 192 -224 192
WIRE 96 192 -80 192
WIRE 368 208 368 176
WIRE 128 224 128 208
WIRE -224 240 -224 192
WIRE 368 320 368 288
WIRE -224 352 -224 320
FLAG -128 16 0
FLAG 128 128 V+
FLAG 128 224 V-
FLAG -224 352 0
FLAG 368 320 0
FLAG 352 -32 V+
FLAG 512 -32 V-
FLAG 352 80 0
FLAG 512 80 0
FLAG 480 176 out
IOPIN 480 176 Out
FLAG -224 160 in
IOPIN -224 160 In
SYMBOL res 16 0 R90
WINDOW 0 0 56 VBottom 0
WINDOW 3 32 56 VTop 0
SYMATTR InstName R1
SYMATTR Value 50
SYMBOL res 192 0 R90
WINDOW 0 0 56 VBottom 0
WINDOW 3 32 56 VTop 0
SYMATTR InstName R2
SYMATTR Value 450
SYMBOL voltage -224 224 R0
WINDOW 123 0 0 Left 0
WINDOW 39 0 0 Left 0
SYMATTR InstName V1
SYMATTR Value SINE(0 0.1 0.1Meg)
SYMBOL res -64 176 R90
WINDOW 0 0 56 VBottom 0
WINDOW 3 32 56 VTop 0
SYMATTR InstName R3
SYMATTR Value 50
SYMBOL res 352 192 R0
SYMATTR InstName R4
SYMATTR Value 1k
SYMBOL voltage 352 -32 R0
WINDOW 123 0 0 Left 0
WINDOW 39 0 0 Left 0
SYMATTR InstName V2
SYMATTR Value 5
SYMBOL voltage 512 -32 R0
WINDOW 123 0 0 Left 0
WINDOW 39 0 0 Left 0
SYMATTR InstName V3
SYMATTR Value -5
SYMBOL Robertugo\\OPAMP5 128 112 R0
SYMATTR InstName U1
SYMATTR SpiceModel OPA686
TEXT -272 -104 Left 0 !.tran 0 100u 0 10n
TEXT -272 -72 Left 0 !.options plotwinsize=0
TEXT 72 -88 Left 0 ;gain = 1 + R2/R1
