* OrCAD Model Editor - Version 9.1

*$
.model Sbreak VSWITCH Roff=1e6 Ron=1.0 Voff=0.0 Von=1.0
*$
.model Dbreak D TT=1n Cjo=10pF Rs=.1
*$
.model D1N5829bis	D(Is=5.71e-04 Rs=3.75m Ikf=163.5 N=1.25 BV=2.66e+01 IBV=8.5m Xti=2 Eg=0.69 Cjo=8.19n
+		M=.426 Vj=.125 Fc=.5 Isr=1.5m Nr=2 TT=1.80e-11)
*		Motorola	pid=1N5829	case=DO4
*		88-09-13 rmn
*$
.model Sbreak2 VSWITCH Roff=1e6 Ron=10m Voff=1 Von=1
*$


.SUBCKT MOC8101 1 2 3   5
* ISOLATOR      A C COL EMITTER
RB 4 0 100Meg
VM 1 6
D1 6 2 LED
H1 7 0 VM .0055
R1 7 8 1K
C1 8 0 3.35nF
G1 3 4 8 0 1
Q1 3 4 5 MPSA06
.MODEL LED D(N=1.7 RS=.7 CJO=23.9P IS=85.3p BV=6 IBV=10U 
+ VJ=0.75 M=0.333 TT=4.32U)
.MODEL MPSA06 NPN (IS=15.2F NF=1 BF=589 VAF=98.6 IKF=90M ISE=3.34P NE=2 
+ BR=4 NR=1 VAR=16 IKR=0.135 RE=0.343 RB=1.37 RC=0.137 XTB=1.5
+ CJE=9.67P VJE=1.1 MJE=0.5 CJC=7.34P VJC=0.3 MJC=0.3 TF=10.29n TR=276N)
.ENDS MOC8101

*****************************************************************
* INFINEON Power Transistors                                    *
* Level_0 PSPICE Library for CoolMOS Transistors                *
* simplified models, convertible to other Spice dialects        * 
* Version 040908                                                *
*                                                               *
*****************************************************************
*****************************************************************
*                                                               *
* Models provided by INFINEON are not warranted by INFINEON as  *
* fully representing all of the specifications and operating    *
* characteristics of the semiconductor product to which the     *
* model relates. The model describe the characteristics of a    * 
* typical device.                                               * 
* In all cases, the current data sheet information for a given  *
* device is the final design guideline and the only actual      *
* performance specification.                                    *
* Altough models can be a useful tool in evaluating device      *
* performance, they cannot model exact device performance under *
* all conditions, nor are they intended to replace bread-       *
* boarding for final verification. INFINEON therefore does not  *
* assume any liability arising from their use.                  *
* INFINEON reserves the right to change models without prior    * 
* notice.                                                       *
*                                                               *
* This library contains models of the following INFINEON        *
* CoolMOS transistors:                                          *
*                                                               *
*   500 V C3                                                    *
*        SPD02N50C3        SPP08N50C3        SPP16N50C3         *
*        SPD03N50C3        SPA12N50C3        SPW16N50C3         *
*        SPA04N50C3        SPB12N50C3        SPA21N50C3         *
*        SPB04N50C3        SPI12N50C3        SPB21N50C3         *
*        SPD04N50C3        SPP12N50C3        SPI21N50C3         *
*        SPP04N50C3        SPW12N50C3        SPP21N50C3         *
*        SPA08N50C3        SPA16N50C3        SPW21N50C3         *
*        SPD08N50C3        SPB16N50C3        SPW32N50C3         *
*        SPI08N50C3        SPI16N50C3        SPW53N50C3         *
*                                                               *
*   500 V CP                                                    *
*        IPA50R520CP       IPD50R520CP       IPP50R520CP        *
*        IPS50R520CP       IPA50R399CP       IPD50R399CP        *
*        IPP50R399CP       IPA50R350CP       IPI50R350CP        *
*        IPP50R350CP       IPA50R299CP       IPB50R299CP        *
*        IPP50R299CP       IPA50R250CP       IPB50R250CP        *
*        IPP50R250CP       IPA50R199CP       IPB50R199CP        *
*        IPP50R199CP       IPW50R199CP       IPA50R140CP        *
*        IPB50R140CP       IPP50R140CP       IPW50R045CP        *
*                                                               *
*   600 V S5                                                    * 
*        SPB02N60S5        SPB04N60S5        SPB11N60S5         *
*        SPD02N60S5        SPD04N60S5        SPI11N60S5         *
*        SPN02N60S5        SPN04N60S5        SPP11N60S5         *
*        SPP02N60S5        SPP04N60S5        SPW11N60S5         *
*        SPU02N60S5        SPU04N60S5        SPB20N60S5         *
*        SPB03N60S5        SPB07N60S5        SPP20N60S5         *
*        SPD03N60S5        SPD07N60S5        SPW20N60S5         *
*        SPN03N60S5        SPI07N60S5        SPW47N60S5         *
*        SPP03N60S5        SPP07N60S5                           *
*        SPU03N60S5        SPU07N60S5                           *
*                                                               *
*   600 V C2                                                    * 
*        SPA04N60C2        SPB07N60C2        SPP07N60C2         *
*        SPA07N60C2        SPB20N60C2        SPP11N60C2         *
*        SPA11N60C2        SPN04N60C2        SPP20N60C2         *
*        SPA20N60C2        SPP04N60C2        SPW20N60C2         *
*                                                               *
*   600 V C3                                                    * 
*        SPD01N60C3        SPP04N60C3        SPA11N60C3         *
*        SPN01N60C3        SPU04N60C3        SPA15N60C3         *
*        SPU01N60C3        SPA04N60C3        SPI15N60C3         *
*        SPB02N60C3        SPD06N60C3        SPP15N60C3         *
*        SPD02N60C3        SPP06N60C3        SPW15N60C3         *
*        SPP02N60C3        SPA06N60C3        SPB20N60C3         *
*        SPU02N60C3        SPB07N60C3        SPI20N60C3         *
*        SPN02N60C3        SPD07N60C3        SPP20N60C3         *
*        SPA03N60C3        SPI07N60C3        SPW20N60C3         *
*        SPB03N60C3        SPP07N60C3        SPA20N60C3         *
*        SPD03N60C3        SPU07N60C3        SPP24N60C3         *
*        SPP03N60C3        SPA07N60C3        SPW24N60C3         *
*        SPU03N60C3        SPB11N60C3        SPW35N60C3         *
*        SPN03N60C3        SPI11N60C3        SPW47N60C3         *
*        SPB04N60C3        SPP11N60C3                           *
*        SPD04N60C3        SPW11N60C3                           *
*                                                               *
*   600 V CFD                                                   *
*        SPA07N60CFD       SPP07N60CFD       SPW07N60CFD        *
*        SPA11N60CFD       SPI11N60CFD       SPP11N60CFD        *
*        SPW11N60CFD       SPA15N60CFD       SPI15N60CFD        *
*        SPP15N60CFD       SPW15N60CFD       SPA20N60CFD        *
*        SPI20N60CFD       SPP20N60CFD       SPW20N60CFD        *
*        SPP24N60CFD       SPW24N60CFD       SPW35N60CFD        *
*        SPW47N60CFD                                            *
*                                                               *
*   600 V CP                                                    * 
*        IPA60R385CP       IPB60R385CP       IPD60R385CP        *
*        IPP60R385CP       IPA60R299CP       IPP60R299CP        *
*        IPA60R250CP       IPB60R250CP       IPI60R250CP        *
*        IPP60R250CP       IPW60R250CP       IPA60R199CP        *
*        IPB60R199CP       IPP60R199CP       IPW60R199CP        *
*        IPA60R165CP       IPB60R165CP       IPP60R165CP        *
*        IPW60R165CP       IPA60R125CP       IPB60R125CP        *
*        IPP60R125CP       IPW60R125CP       IPW60R099CP        *
*        IPP60R099CP       IPB60R099CP       IPW60R075CP        *
*        IPW60R045CP                                            *
*                                                               *
*   650 V C3                                                    *
*        SPA07N65C3        SPI07N65C3        SPP07N65C3         *
*        SPA11N65C3        SPI11N65C3        SPP11N65C3         *
*        SPA15N65C3        SPI15N65C3        SPP15N65C3         *
*        SPA20N65C3        SPI20N65C3        SPP20N65C3         *
*        SPW47N65C3                                             *
*                                                               * 
*   800 V C3                                                    * 
*        SPNA2N80C2        SPA06N80C3        SPP11N80C3         *
*        SPA02N80C3        SPP06N80C3        SPW11N80C3         *
*        SPD02N80C3        SPD06N80C3        SPA17N80C3         *
*        SPP02N80C3        SPA08N80C3        SPB17N80C3         *
*        SPA04N80C3        SPI08N80C3        SPP17N80C3         *
*        SPD04N80C3        SPP08N80C3        SPW17N80C3         *
*        SPP04N80C3        SPA11N80C3                           *
*                                                               * 
*   800 V C3A                                                   *
*        IPB80R290C3A      IPW80R290C3A                         *
*                                                               *
*   900 V C3                                                    *
*        IPA90R1K2C3       IPD90R1K2C3       IPI90R1K2C3        *
*        IPP90R1K2C3       IPW90R1K2C3       IPA90R1K0C3        *
*        IPI90R1K0C3       IPP90R1K0C3       IPW90R1K0C3        *
*        IPA90R800C3       IPI90R800C3       IPP90R800C3        *
*        IPW90R800C3       IPA90R500C3       IPI90R500C3        *
*        IPP90R500C3       IPW90R500C3       IPA90R340C3        *
*        IPP90R340C3       IPW90R340C3       IPW90R120C3        *
*****************************************************************

.SUBCKT SPB02N60S5_L0  drain  gate  source

Lg     gate  g1    7n
Ld     drain d1    1n
Ls     source s1   7n
Rs      s1    s2   4.17m

Rg     g1    g2     7.7
M1      d2    g2    s2    s2    DMOS    L=1u   W=1u
.MODEL DMOS NMOS ( KP= 0.96  VTO=5.4  THETA=0  VMAX=1.5e5  ETA=0  LEVEL=3)
Rd     d2    d1a    1.85 TC=12m
.MODEL MVDR NMOS (KP=4.5 VTO=-1   LAMBDA=0.1)
Mr d1 d2a d1a d1a MVDR W=1u L=1u
Rx d2a d1a 1m
Cds1 s2 d2 5p
Dbd     s2    d2    Dbt
.MODEL     Dbt    D(BV=600   M=0.8  CJO=0.51n  VJ=0.5V)
Dbody   s2   21    DBODY
.MODEL DBODY  D(IS=1.1p  N=1.15  RS=89u  EG=1.12  TT=750n)
Rdiode  d1  21    66.67m TC=6m

.MODEL   sw    NMOS(VTO=0  KP=10   LEVEL=1)
Maux      g2   c    a    a   sw
Maux2     b    d    g2    g2   sw
Eaux      c    a    d2    g2   1
Eaux2     d    g2   d2    g2   -1
Cox       b    d2   0.41n
.MODEL     DGD    D(M=1.2   CJO=0.41n   VJ=0.5)
Rpar      b    d2   1Meg
Dgd       a    d2   DGD
Rpar2     d2   a    10Meg
Cgs     g2    s2    0.18n

.ENDS  SPB02N60S5_L0

******

.SUBCKT SPD02N60S5_L0  drain  gate  source

Lg     gate  g1    7n
Ld     drain d1    1n
Ls     source s1   7n
Rs      s1    s2   2.78m

Rg     g1    g2     7.7
M1      d2    g2    s2    s2    DMOS    L=1u   W=1u
.MODEL DMOS NMOS ( KP= 0.96  VTO=5.4  THETA=0  VMAX=1.5e5  ETA=0  LEVEL=3)
Rd     d2    d1a    1.85 TC=12m
.MODEL MVDR NMOS (KP=4.5 VTO=-1   LAMBDA=0.1)
Mr d1 d2a d1a d1a MVDR W=1u L=1u
Rx d2a d1a 1m
Cds1 s2 d2 5p
Dbd     s2    d2    Dbt
.MODEL     Dbt    D(BV=600   M=0.8  CJO=0.51n  VJ=0.5V)
Dbody   s2   21    DBODY
.MODEL DBODY  D(IS=1.1p  N=1.15  RS=89u  EG=1.12  TT=750n)
Rdiode  d1  21    66.67m TC=6m

.MODEL   sw    NMOS(VTO=0  KP=10   LEVEL=1)
Maux      g2   c    a    a   sw
Maux2     b    d    g2    g2   sw
Eaux      c    a    d2    g2   1
Eaux2     d    g2   d2    g2   -1
Cox       b    d2   0.41n
.MODEL     DGD    D(M=1.2   CJO=0.41n   VJ=0.5)
Rpar      b    d2   1Meg
Dgd       a    d2   DGD
Rpar2     d2   a    10Meg
Cgs     g2    s2    0.18n

.ENDS  SPD02N60S5_L0

******

.SUBCKT SPN02N60S5_L0  drain  gate  source

Lg     gate  g1    3n
Ld     drain d1    1n
Ls     source s1   3n
Rs      s1    s2   1.44m

Rg     g1    g2     7.7
M1      d2    g2    s2    s2    DMOS    L=1u   W=1u
.MODEL DMOS NMOS ( KP= 0.96  VTO=5.4  THETA=0  VMAX=1.5e5  ETA=0  LEVEL=3)
Rd     d2    d1a    1.85 TC=12m
.MODEL MVDR NMOS (KP=4.5 VTO=-1   LAMBDA=0.1)
Mr d1 d2a d1a d1a MVDR W=1u L=1u
Rx d2a d1a 1m
Cds1 s2 d2 5p
Dbd     s2    d2    Dbt
.MODEL     Dbt    D(BV=600   M=0.8  CJO=0.51n  VJ=0.5V)
Dbody   s2   21    DBODY
.MODEL DBODY  D(IS=1.1p  N=1.15  RS=89u  EG=1.12  TT=750n)
Rdiode  d1  21    66.67m TC=6m

.MODEL   sw    NMOS(VTO=0  KP=10   LEVEL=1)
Maux      g2   c    a    a   sw
Maux2     b    d    g2    g2   sw
Eaux      c    a    d2    g2   1
Eaux2     d    g2   d2    g2   -1
Cox       b    d2   0.41n
.MODEL     DGD    D(M=1.2   CJO=0.41n   VJ=0.5)
Rpar      b    d2   1Meg
Dgd       a    d2   DGD
Rpar2     d2   a    10Meg
Cgs     g2    s2    0.18n

.ENDS  SPN02N60S5_L0

******

.SUBCKT SPP02N60S5_L0  drain  gate  source

Lg     gate  g1    7n
Ld     drain d1    3n
Ls     source s1   7n
Rs      s1    s2   4.17m

Rg     g1    g2     7.7
M1      d2    g2    s2    s2    DMOS    L=1u   W=1u
.MODEL DMOS NMOS ( KP= 0.96  VTO=5.4  THETA=0  VMAX=1.5e5  ETA=0  LEVEL=3)
Rd     d2    d1a    1.85 TC=12m
.MODEL MVDR NMOS (KP=4.5 VTO=-1   LAMBDA=0.1)
Mr d1 d2a d1a d1a MVDR W=1u L=1u
Rx d2a d1a 1m
Cds1 s2 d2 5p
Dbd     s2    d2    Dbt
.MODEL     Dbt    D(BV=600   M=0.8  CJO=0.51n  VJ=0.5V)
Dbody   s2   21    DBODY
.MODEL DBODY  D(IS=1.1p  N=1.15  RS=89u  EG=1.12  TT=750n)
Rdiode  d1  21    66.67m TC=6m

.MODEL   sw    NMOS(VTO=0  KP=10   LEVEL=1)
Maux      g2   c    a    a   sw
Maux2     b    d    g2    g2   sw
Eaux      c    a    d2    g2   1
Eaux2     d    g2   d2    g2   -1
Cox       b    d2   0.41n
.MODEL     DGD    D(M=1.2   CJO=0.41n   VJ=0.5)
Rpar      b    d2   1Meg
Dgd       a    d2   DGD
Rpar2     d2   a    10Meg
Cgs     g2    s2    0.18n

.ENDS  SPP02N60S5_L0

******

.SUBCKT SPU02N60S5_L0  drain  gate  source

Lg     gate  g1    7n
Ld     drain d1    3n
Ls     source s1   7n
Rs      s1    s2   2.78m

Rg     g1    g2     7.7
M1      d2    g2    s2    s2    DMOS    L=1u   W=1u
.MODEL DMOS NMOS ( KP= 0.96  VTO=5.4  THETA=0  VMAX=1.5e5  ETA=0  LEVEL=3)
Rd     d2    d1a    1.85 TC=12m
.MODEL MVDR NMOS (KP=4.5 VTO=-1   LAMBDA=0.1)
Mr d1 d2a d1a d1a MVDR W=1u L=1u
Rx d2a d1a 1m
Cds1 s2 d2 5p
Dbd     s2    d2    Dbt
.MODEL     Dbt    D(BV=600   M=0.8  CJO=0.51n  VJ=0.5V)
Dbody   s2   21    DBODY
.MODEL DBODY  D(IS=1.1p  N=1.15  RS=89u  EG=1.12  TT=750n)
Rdiode  d1  21    66.67m TC=6m

.MODEL   sw    NMOS(VTO=0  KP=10   LEVEL=1)
Maux      g2   c    a    a   sw
Maux2     b    d    g2    g2   sw
Eaux      c    a    d2    g2   1
Eaux2     d    g2   d2    g2   -1
Cox       b    d2   0.41n
.MODEL     DGD    D(M=1.2   CJO=0.41n   VJ=0.5)
Rpar      b    d2   1Meg
Dgd       a    d2   DGD
Rpar2     d2   a    10Meg
Cgs     g2    s2    0.18n

.ENDS  SPU02N60S5_L0

******

.SUBCKT SPB03N60S5_L0  drain  gate  source

Lg     gate  g1    7n
Ld     drain d1    1n
Ls     source s1   7n
Rs      s1    s2   4.17m

Rg     g1    g2     9.8
M1      d2    g2    s2    s2    DMOS    L=1u   W=1u
.MODEL DMOS NMOS ( KP= 1.805  VTO=5.4  THETA=0  VMAX=1.5e5  ETA=0  LEVEL=3)
Rd     d2    d1a    0.984 TC=12m
.MODEL MVDR NMOS (KP=8.46 VTO=-1   LAMBDA=0.1)
Mr d1 d2a d1a d1a MVDR W=1u L=1u
Rx d2a d1a 1m
Cds1 s2 d2 9.3p
Dbd     s2    d2    Dbt
.MODEL     Dbt    D(BV=600   M=0.8  CJO=0.96n  VJ=0.5V)
Dbody   s2   21    DBODY
.MODEL DBODY  D(IS=2p  N=1.15  RS=47u  EG=1.12  TT=750n)
Rdiode  d1  21    35.46m TC=6m

.MODEL   sw    NMOS(VTO=0  KP=10   LEVEL=1)
Maux      g2   c    a    a   sw
Maux2     b    d    g2    g2   sw
Eaux      c    a    d2    g2   1
Eaux2     d    g2   d2    g2   -1
Cox       b    d2   0.76n
.MODEL     DGD    D(M=1.2   CJO=0.76n   VJ=0.5)
Rpar      b    d2   1Meg
Dgd       a    d2   DGD
Rpar2     d2   a    10Meg
Cgs     g2    s2    0.35n

.ENDS  SPB03N60S5_L0

******

.SUBCKT SPD03N60S5_L0  drain  gate  source

Lg     gate  g1    7n
Ld     drain d1    1n
Ls     source s1   7n
Rs      s1    s2   2.78m

Rg     g1    g2     9.8
M1      d2    g2    s2    s2    DMOS    L=1u   W=1u
.MODEL DMOS NMOS ( KP= 1.805  VTO=5.4  THETA=0  VMAX=1.5e5  ETA=0  LEVEL=3)
Rd     d2    d1a    0.984 TC=12m
.MODEL MVDR NMOS (KP=8.46 VTO=-1   LAMBDA=0.1)
Mr d1 d2a d1a d1a MVDR W=1u L=1u
Rx d2a d1a 1m
Cds1 s2 d2 9.3p
Dbd     s2    d2    Dbt
.MODEL     Dbt    D(BV=600   M=0.8  CJO=0.96n  VJ=0.5V)
Dbody   s2   21    DBODY
.MODEL DBODY  D(IS=2p  N=1.15  RS=47u  EG=1.12  TT=750n)
Rdiode  d1  21    35.46m TC=6m

.MODEL   sw    NMOS(VTO=0  KP=10   LEVEL=1)
Maux      g2   c    a    a   sw
Maux2     b    d    g2    g2   sw
Eaux      c    a    d2    g2   1
Eaux2     d    g2   d2    g2   -1
Cox       b    d2   0.76n
.MODEL     DGD    D(M=1.2   CJO=0.76n   VJ=0.5)
Rpar      b    d2   1Meg
Dgd       a    d2   DGD
Rpar2     d2   a    10Meg
Cgs     g2    s2    0.35n

.ENDS  SPD03N60S5_L0

******

.SUBCKT SPN03N60S5_L0  drain  gate  source

Lg     gate  g1    3n
Ld     drain d1    1n
Ls     source s1   3n
Rs      s1    s2   1.44m

Rg     g1    g2     9.8
M1      d2    g2    s2    s2    DMOS    L=1u   W=1u
.MODEL DMOS NMOS ( KP= 1.805  VTO=5.4  THETA=0  VMAX=1.5e5  ETA=0  LEVEL=3)
Rd     d2    d1a    0.984 TC=12m
.MODEL MVDR NMOS (KP=8.46 VTO=-1   LAMBDA=0.1)
Mr d1 d2a d1a d1a MVDR W=1u L=1u
Rx d2a d1a 1m
Cds1 s2 d2 9.3p
Dbd     s2    d2    Dbt
.MODEL     Dbt    D(BV=600   M=0.8  CJO=0.96n  VJ=0.5V)
Dbody   s2   21    DBODY
.MODEL DBODY  D(IS=2p  N=1.15  RS=47u  EG=1.12  TT=750n)
Rdiode  d1  21    35.46m TC=6m

.MODEL   sw    NMOS(VTO=0  KP=10   LEVEL=1)
Maux      g2   c    a    a   sw
Maux2     b    d    g2    g2   sw
Eaux      c    a    d2    g2   1
Eaux2     d    g2   d2    g2   -1
Cox       b    d2   0.76n
.MODEL     DGD    D(M=1.2   CJO=0.76n   VJ=0.5)
Rpar      b    d2   1Meg
Dgd       a    d2   DGD
Rpar2     d2   a    10Meg
Cgs     g2    s2    0.35n

.ENDS  SPN03N60S5_L0

******

.SUBCKT SPP03N60S5_L0  drain  gate  source

Lg     gate  g1    7n
Ld     drain d1    3n
Ls     source s1   7n
Rs      s1    s2   4.17m

Rg     g1    g2     9.8
M1      d2    g2    s2    s2    DMOS    L=1u   W=1u
.MODEL DMOS NMOS ( KP= 1.805  VTO=5.4  THETA=0  VMAX=1.5e5  ETA=0  LEVEL=3)
Rd     d2    d1a    0.984 TC=12m
.MODEL MVDR NMOS (KP=8.46 VTO=-1   LAMBDA=0.1)
Mr d1 d2a d1a d1a MVDR W=1u L=1u
Rx d2a d1a 1m
Cds1 s2 d2 9.3p
Dbd     s2    d2    Dbt
.MODEL     Dbt    D(BV=600   M=0.8  CJO=0.96n  VJ=0.5V)
Dbody   s2   21    DBODY
.MODEL DBODY  D(IS=2p  N=1.15  RS=47u  EG=1.12  TT=750n)
Rdiode  d1  21    35.46m TC=6m

.MODEL   sw    NMOS(VTO=0  KP=10   LEVEL=1)
Maux      g2   c    a    a   sw
Maux2     b    d    g2    g2   sw
Eaux      c    a    d2    g2   1
Eaux2     d    g2   d2    g2   -1
Cox       b    d2   0.76n
.MODEL     DGD    D(M=1.2   CJO=0.76n   VJ=0.5)
Rpar      b    d2   1Meg
Dgd       a    d2   DGD
Rpar2     d2   a    10Meg
Cgs     g2    s2    0.35n

.ENDS  SPP03N60S5_L0

******

.SUBCKT SPU03N60S5_L0  drain  gate  source

Lg     gate  g1    7n
Ld     drain d1    3n
Ls     source s1   7n
Rs      s1    s2   2.78m

Rg     g1    g2     9.8
M1      d2    g2    s2    s2    DMOS    L=1u   W=1u
.MODEL DMOS NMOS ( KP= 1.805  VTO=5.4  THETA=0  VMAX=1.5e5  ETA=0  LEVEL=3)
Rd     d2    d1a    0.984 TC=12m
.MODEL MVDR NMOS (KP=8.46 VTO=-1   LAMBDA=0.1)
Mr d1 d2a d1a d1a MVDR W=1u L=1u
Rx d2a d1a 1m
Cds1 s2 d2 9.3p
Dbd     s2    d2    Dbt
.MODEL     Dbt    D(BV=600   M=0.8  CJO=0.96n  VJ=0.5V)
Dbody   s2   21    DBODY
.MODEL DBODY  D(IS=2p  N=1.15  RS=47u  EG=1.12  TT=750n)
Rdiode  d1  21    35.46m TC=6m

.MODEL   sw    NMOS(VTO=0  KP=10   LEVEL=1)
Maux      g2   c    a    a   sw
Maux2     b    d    g2    g2   sw
Eaux      c    a    d2    g2   1
Eaux2     d    g2   d2    g2   -1
Cox       b    d2   0.76n
.MODEL     DGD    D(M=1.2   CJO=0.76n   VJ=0.5)
Rpar      b    d2   1Meg
Dgd       a    d2   DGD
Rpar2     d2   a    10Meg
Cgs     g2    s2    0.35n

.ENDS  SPU03N60S5_L0

******

.SUBCKT SPB04N60S5_L0  drain  gate  source

Lg     gate  g1    7n
Ld     drain d1    1n
Ls     source s1   7n
Rs      s1    s2   4.17m

Rg     g1    g2     19.7
M1      d2    g2    s2    s2    DMOS    L=1u   W=1u
.MODEL DMOS NMOS ( KP= 2.534  VTO=5.4  THETA=0  VMAX=1.5e5  ETA=0  LEVEL=3)
Rd     d2    d1a    0.701 TC=12m
.MODEL MVDR NMOS (KP=11.88 VTO=-1   LAMBDA=0.1)
Mr d1 d2a d1a d1a MVDR W=1u L=1u
Rx d2a d1a 1m
Cds1 s2 d2 13.1p
Dbd     s2    d2    Dbt
.MODEL     Dbt    D(BV=600   M=0.8  CJO=1.35n  VJ=0.5V)
Dbody   s2   21    DBODY
.MODEL DBODY  D(IS=2.8p  N=1.15  RS=34u  EG=1.12  TT=750n)
Rdiode  d1  21    25.25m TC=6m

.MODEL   sw    NMOS(VTO=0  KP=10   LEVEL=1)
Maux      g2   c    a    a   sw
Maux2     b    d    g2    g2   sw
Eaux      c    a    d2    g2   1
Eaux2     d    g2   d2    g2   -1
Cox       b    d2   1.07n
.MODEL     DGD    D(M=1.2   CJO=1.07n   VJ=0.5)
Rpar      b    d2   1Meg
Dgd       a    d2   DGD
Rpar2     d2   a    10Meg
Cgs     g2    s2    0.49n

.ENDS  SPB04N60S5_L0

******

.SUBCKT SPD04N60S5_L0  drain  gate  source

Lg     gate  g1    7n
Ld     drain d1    1n
Ls     source s1   7n
Rs      s1    s2   2.78m

Rg     g1    g2     19.7
M1      d2    g2    s2    s2    DMOS    L=1u   W=1u
.MODEL DMOS NMOS ( KP= 2.72  VTO=5.4  THETA=0  VMAX=1.5e5  ETA=0  LEVEL=3)
Rd     d2    d1a    0.653 TC=12m
.MODEL MVDR NMOS (KP=12.75 VTO=-1   LAMBDA=0.1)
Mr d1 d2a d1a d1a MVDR W=1u L=1u
Rx d2a d1a 1m
Cds1 s2 d2 14p
Dbd     s2    d2    Dbt
.MODEL     Dbt    D(BV=600   M=0.8  CJO=1.45n  VJ=0.5V)
Dbody   s2   21    DBODY
.MODEL DBODY  D(IS=3p  N=1.15  RS=31u  EG=1.12  TT=750n)
Rdiode  d1  21    23.53m TC=6m

.MODEL   sw    NMOS(VTO=0  KP=10   LEVEL=1)
Maux      g2   c    a    a   sw
Maux2     b    d    g2    g2   sw
Eaux      c    a    d2    g2   1
Eaux2     d    g2   d2    g2   -1
Cox       b    d2   1.15n
.MODEL     DGD    D(M=1.2   CJO=1.15n   VJ=0.5)
Rpar      b    d2   1Meg
Dgd       a    d2   DGD
Rpar2     d2   a    10Meg
Cgs     g2    s2    0.52n

.ENDS  SPD04N60S5_L0

******

.SUBCKT SPN04N60S5_L0  drain  gate  source

Lg     gate  g1    3n
Ld     drain d1    1n
Ls     source s1   3n
Rs      s1    s2   1.44m

Rg     g1    g2     19.7
M1      d2    g2    s2    s2    DMOS    L=1u   W=1u
.MODEL DMOS NMOS ( KP= 2.72  VTO=5.4  THETA=0  VMAX=1.5e5  ETA=0  LEVEL=3)
Rd     d2    d1a    0.653 TC=12m
.MODEL MVDR NMOS (KP=12.75 VTO=-1   LAMBDA=0.1)
Mr d1 d2a d1a d1a MVDR W=1u L=1u
Rx d2a d1a 1m
Cds1 s2 d2 14p
Dbd     s2    d2    Dbt
.MODEL     Dbt    D(BV=600   M=0.8  CJO=1.45n  VJ=0.5V)
Dbody   s2   21    DBODY
.MODEL DBODY  D(IS=3p  N=1.15  RS=31u  EG=1.12  TT=750n)
Rdiode  d1  21    23.53m TC=6m

.MODEL   sw    NMOS(VTO=0  KP=10   LEVEL=1)
Maux      g2   c    a    a   sw
Maux2     b    d    g2    g2   sw
Eaux      c    a    d2    g2   1
Eaux2     d    g2   d2    g2   -1
Cox       b    d2   1.15n
.MODEL     DGD    D(M=1.2   CJO=1.15n   VJ=0.5)
Rpar      b    d2   1Meg
Dgd       a    d2   DGD
Rpar2     d2   a    10Meg
Cgs     g2    s2    0.52n

.ENDS  SPN04N60S5_L0

******

.SUBCKT SPP04N60S5_L0  drain  gate  source

Lg     gate  g1    7n
Ld     drain d1    3n
Ls     source s1   7n
Rs      s1    s2   4.17m

Rg     g1    g2     19.7
M1      d2    g2    s2    s2    DMOS    L=1u   W=1u
.MODEL DMOS NMOS ( KP= 2.72  VTO=5.4  THETA=0  VMAX=1.5e5  ETA=0  LEVEL=3)
Rd     d2    d1a    0.653 TC=12m
.MODEL MVDR NMOS (KP=12.75 VTO=-1   LAMBDA=0.1)
Mr d1 d2a d1a d1a MVDR W=1u L=1u
Rx d2a d1a 1m
Cds1 s2 d2 14p
Dbd     s2    d2    Dbt
.MODEL     Dbt    D(BV=600   M=0.8  CJO=1.45n  VJ=0.5V)
Dbody   s2   21    DBODY
.MODEL DBODY  D(IS=3p  N=1.15  RS=31u  EG=1.12  TT=750n)
Rdiode  d1  21    23.53m TC=6m

.MODEL   sw    NMOS(VTO=0  KP=10   LEVEL=1)
Maux      g2   c    a    a   sw
Maux2     b    d    g2    g2   sw
Eaux      c    a    d2    g2   1
Eaux2     d    g2   d2    g2   -1
Cox       b    d2   1.15n
.MODEL     DGD    D(M=1.2   CJO=1.15n   VJ=0.5)
Rpar      b    d2   1Meg
Dgd       a    d2   DGD
Rpar2     d2   a    10Meg
Cgs     g2    s2    0.52n

.ENDS  SPP04N60S5_L0

******

.SUBCKT SPU04N60S5_L0  drain  gate  source

Lg     gate  g1    7n
Ld     drain d1    3n
Ls     source s1   7n
Rs      s1    s2   2.78m

Rg     g1    g2     19.7
M1      d2    g2    s2    s2    DMOS    L=1u   W=1u
.MODEL DMOS NMOS ( KP= 2.72  VTO=5.4  THETA=0  VMAX=1.5e5  ETA=0  LEVEL=3)
Rd     d2    d1a    0.653 TC=12m
.MODEL MVDR NMOS (KP=12.75 VTO=-1   LAMBDA=0.1)
Mr d1 d2a d1a d1a MVDR W=1u L=1u
Rx d2a d1a 1m
Cds1 s2 d2 14p
Dbd     s2    d2    Dbt
.MODEL     Dbt    D(BV=600   M=0.8  CJO=1.45n  VJ=0.5V)
Dbody   s2   21    DBODY
.MODEL DBODY  D(IS=3p  N=1.15  RS=31u  EG=1.12  TT=750n)
Rdiode  d1  21    23.53m TC=6m

.MODEL   sw    NMOS(VTO=0  KP=10   LEVEL=1)
Maux      g2   c    a    a   sw
Maux2     b    d    g2    g2   sw
Eaux      c    a    d2    g2   1
Eaux2     d    g2   d2    g2   -1
Cox       b    d2   1.15n
.MODEL     DGD    D(M=1.2   CJO=1.15n   VJ=0.5)
Rpar      b    d2   1Meg
Dgd       a    d2   DGD
Rpar2     d2   a    10Meg
Cgs     g2    s2    0.52n

.ENDS  SPU04N60S5_L0

******

.SUBCKT SPB07N60S5_L0  drain  gate  source

Lg     gate  g1    7n
Ld     drain d1    1n
Ls     source s1   7n
Rs      s1    s2   4.17m

Rg     g1    g2     19.1
M1      d2    g2    s2    s2    DMOS    L=1u   W=1u
.MODEL DMOS NMOS ( KP= 4.147  VTO=5.4  THETA=0  VMAX=1.5e5  ETA=0  LEVEL=3)
Rd     d2    d1a    0.428 TC=12m
.MODEL MVDR NMOS (KP=19.44 VTO=-1   LAMBDA=0.1)
Mr d1 d2a d1a d1a MVDR W=1u L=1u
Rx d2a d1a 1m
Cds1 s2 d2 21.4p
Dbd     s2    d2    Dbt
.MODEL     Dbt    D(BV=600   M=0.8  CJO=2.21n  VJ=0.5V)
Dbody   s2   21    DBODY
.MODEL DBODY  D(IS=4.6p  N=1.15  RS=21u  EG=1.12  TT=750n)
Rdiode  d1  21    15.43m TC=6m

.MODEL   sw    NMOS(VTO=0  KP=10   LEVEL=1)
Maux      g2   c    a    a   sw
Maux2     b    d    g2    g2   sw
Eaux      c    a    d2    g2   1
Eaux2     d    g2   d2    g2   -1
Cox       b    d2   1.76n
.MODEL     DGD    D(M=1.2   CJO=1.76n   VJ=0.5)
Rpar      b    d2   1Meg
Dgd       a    d2   DGD
Rpar2     d2   a    10Meg
Cgs     g2    s2    0.8n

.ENDS  SPB07N60S5_L0

******

.SUBCKT SPD07N60S5_L0  drain  gate  source

Lg     gate  g1    7n
Ld     drain d1    1n
Ls     source s1   7n
Rs      s1    s2   2.78m

Rg     g1    g2     19.1
M1      d2    g2    s2    s2    DMOS    L=1u   W=1u
.MODEL DMOS NMOS ( KP= 4.147  VTO=5.4  THETA=0  VMAX=1.5e5  ETA=0  LEVEL=3)
Rd     d2    d1a    0.428 TC=12m
.MODEL MVDR NMOS (KP=19.44 VTO=-1   LAMBDA=0.1)
Mr d1 d2a d1a d1a MVDR W=1u L=1u
Rx d2a d1a 1m
Cds1 s2 d2 21.4p
Dbd     s2    d2    Dbt
.MODEL     Dbt    D(BV=600   M=0.8  CJO=2.21n  VJ=0.5V)
Dbody   s2   21    DBODY
.MODEL DBODY  D(IS=4.6p  N=1.15  RS=21u  EG=1.12  TT=750n)
Rdiode  d1  21    15.43m TC=6m

.MODEL   sw    NMOS(VTO=0  KP=10   LEVEL=1)
Maux      g2   c    a    a   sw
Maux2     b    d    g2    g2   sw
Eaux      c    a    d2    g2   1
Eaux2     d    g2   d2    g2   -1
Cox       b    d2   1.76n
.MODEL     DGD    D(M=1.2   CJO=1.76n   VJ=0.5)
Rpar      b    d2   1Meg
Dgd       a    d2   DGD
Rpar2     d2   a    10Meg
Cgs     g2    s2    0.8n

.ENDS  SPD07N60S5_L0

******

.SUBCKT SPI07N60S5_L0  drain  gate  source

Lg     gate  g1    7n
Ld     drain d1    3n
Ls     source s1   7n
Rs      s1    s2   4.17m

Rg     g1    g2     19.1
M1      d2    g2    s2    s2    DMOS    L=1u   W=1u
.MODEL DMOS NMOS ( KP= 4.147  VTO=5.4  THETA=0  VMAX=1.5e5  ETA=0  LEVEL=3)
Rd     d2    d1a    0.429 TC=12m
.MODEL MVDR NMOS (KP=19.44 VTO=-1   LAMBDA=0.1)
Mr d1 d2a d1a d1a MVDR W=1u L=1u
Rx d2a d1a 1m
Cds1 s2 d2 21.4p
Dbd     s2    d2    Dbt
.MODEL     Dbt    D(BV=600   M=0.8  CJO=2.21n  VJ=0.5V)
Dbody   s2   21    DBODY
.MODEL DBODY  D(IS=4.6p  N=1.15  RS=21u  EG=1.12  TT=750n)
Rdiode  d1  21    15.43m TC=6m

.MODEL   sw    NMOS(VTO=0  KP=10   LEVEL=1)
Maux      g2   c    a    a   sw
Maux2     b    d    g2    g2   sw
Eaux      c    a    d2    g2   1
Eaux2     d    g2   d2    g2   -1
Cox       b    d2   1.76n
.MODEL     DGD    D(M=1.2   CJO=1.76n   VJ=0.5)
Rpar      b    d2   1Meg
Dgd       a    d2   DGD
Rpar2     d2   a    10Meg
Cgs     g2    s2    0.8n

.ENDS  SPI07N60S5_L0

******

.SUBCKT SPP07N60S5_L0  drain  gate  source

Lg     gate  g1    7n
Ld     drain d1    3n
Ls     source s1   7n
Rs      s1    s2   4.17m

Rg     g1    g2     19.1
M1      d2    g2    s2    s2    DMOS    L=1u   W=1u
.MODEL DMOS NMOS ( KP= 4.147  VTO=5.4  THETA=0  VMAX=1.5e5  ETA=0  LEVEL=3)
Rd     d2    d1a    0.429 TC=12m
.MODEL MVDR NMOS (KP=19.44 VTO=-1   LAMBDA=0.1)
Mr d1 d2a d1a d1a MVDR W=1u L=1u
Rx d2a d1a 1m
Cds1 s2 d2 21.4p
Dbd     s2    d2    Dbt
.MODEL     Dbt    D(BV=600   M=0.8  CJO=2.21n  VJ=0.5V)
Dbody   s2   21    DBODY
.MODEL DBODY  D(IS=4.6p  N=1.15  RS=21u  EG=1.12  TT=750n)
Rdiode  d1  21    15.43m TC=6m

.MODEL   sw    NMOS(VTO=0  KP=10   LEVEL=1)
Maux      g2   c    a    a   sw
Maux2     b    d    g2    g2   sw
Eaux      c    a    d2    g2   1
Eaux2     d    g2   d2    g2   -1
Cox       b    d2   1.76n
.MODEL     DGD    D(M=1.2   CJO=1.76n   VJ=0.5)
Rpar      b    d2   1Meg
Dgd       a    d2   DGD
Rpar2     d2   a    10Meg
Cgs     g2    s2    0.8n

.ENDS  SPP07N60S5_L0

******

.SUBCKT SPU07N60S5_L0  drain  gate  source

Lg     gate  g1    7n
Ld     drain d1    3n
Ls     source s1   7n
Rs      s1    s2   2.78m

Rg     g1    g2     19.1
M1      d2    g2    s2    s2    DMOS    L=1u   W=1u
.MODEL DMOS NMOS ( KP= 4.147  VTO=5.4  THETA=0  VMAX=1.5e5  ETA=0  LEVEL=3)
Rd     d2    d1a    0.429 TC=12m
.MODEL MVDR NMOS (KP=19.44 VTO=-1   LAMBDA=0.1)
Mr d1 d2a d1a d1a MVDR W=1u L=1u
Rx d2a d1a 1m
Cds1 s2 d2 21.4p
Dbd     s2    d2    Dbt
.MODEL     Dbt    D(BV=600   M=0.8  CJO=2.21n  VJ=0.5V)
Dbody   s2   21    DBODY
.MODEL DBODY  D(IS=4.6p  N=1.15  RS=21u  EG=1.12  TT=750n)
Rdiode  d1  21    15.43m TC=6m

.MODEL   sw    NMOS(VTO=0  KP=10   LEVEL=1)
Maux      g2   c    a    a   sw
Maux2     b    d    g2    g2   sw
Eaux      c    a    d2    g2   1
Eaux2     d    g2   d2    g2   -1
Cox       b    d2   1.76n
.MODEL     DGD    D(M=1.2   CJO=1.76n   VJ=0.5)
Rpar      b    d2   1Meg
Dgd       a    d2   DGD
Rpar2     d2   a    10Meg
Cgs     g2    s2    0.8n

.ENDS  SPU07N60S5_L0

******

.SUBCKT SPB11N60S5_L0  drain  gate  source

Lg     gate  g1    7n
Ld     drain d1    1n