Version 4
SHEET 1 1220 1876
WIRE -416 -32 -448 -32
WIRE -384 -32 -416 -32
WIRE -288 -32 -320 -32
WIRE -176 -32 -208 -32
WIRE 304 -32 64 -32
WIRE 432 -32 304 -32
WIRE 560 -32 432 -32
WIRE 592 -32 560 -32
WIRE 208 16 64 16
WIRE 304 16 304 -32
WIRE 432 16 432 -32
WIRE 560 16 560 -32
WIRE -416 64 -416 -32
WIRE 96 64 64 64
WIRE 96 112 96 64
WIRE 304 128 304 80
WIRE -416 208 -416 144
WIRE -128 208 -128 96
WIRE -128 208 -416 208
WIRE 96 208 96 192
WIRE 96 208 -128 208
WIRE 304 208 304 192
WIRE 304 208 96 208
WIRE 432 208 432 80
WIRE 432 208 304 208
WIRE -416 240 -416 208
WIRE 560 304 560 80
WIRE 560 304 400 304
WIRE 208 320 208 16
WIRE 224 320 208 320
WIRE 336 320 304 320
WIRE 432 336 400 336
WIRE 432 400 432 336
WIRE 208 416 208 320
WIRE 560 416 560 304
WIRE 208 512 208 480
WIRE 432 512 432 480
WIRE 432 512 208 512
WIRE 560 512 560 480
WIRE 560 512 432 512
WIRE 560 544 560 512
FLAG -416 240 0
FLAG 592 -32 OUT
IOPIN 592 -32 Out
FLAG -448 -32 IN
IOPIN -448 -32 In
FLAG 560 544 0
SYMBOL voltage -416 48 R0
WINDOW 123 0 0 Left 0
WINDOW 39 0 0 Left 0
WINDOW 0 39 43 Left 0
WINDOW 3 38 73 Left 0
SYMATTR InstName Vin
SYMATTR Value 10V
SYMBOL ind2 -304 -16 R270
WINDOW 0 32 56 VTop 0
WINDOW 3 4 56 VBottom 0
SYMATTR InstName L1
SYMATTR Value 100µH
SYMBOL res2 -320 -48 R90
WINDOW 0 0 32 VBottom 0
WINDOW 3 32 32 VTop 0
SYMATTR InstName Rlf
SYMATTR Value {Rlf}
SYMBOL res2 544 16 R0
SYMATTR InstName Rupper
SYMATTR Value 50k
SYMBOL cap 192 416 R0
SYMATTR InstName CoC
SYMATTR Value 1kF
SYMBOL voltage 96 96 R0
WINDOW 123 43 99 Left 0
WINDOW 39 0 0 Left 0
WINDOW 0 41 45 Left 0
WINDOW 3 43 71 Left 0
SYMATTR Value2 AC 1
SYMATTR InstName V1
SYMATTR Value ""
SYMBOL res2 288 16 R0
SYMATTR InstName Rcf
SYMATTR Value 100m
SYMBOL cap 288 128 R0
SYMATTR InstName C1
SYMATTR Value 100µF
SYMBOL res2 416 16 R0
SYMATTR InstName R1
SYMATTR Value 10
SYMBOL res2 544 416 R0
SYMATTR InstName Rlower
SYMATTR Value 10k
SYMBOL voltage 432 384 R0
WINDOW 123 0 0 Left 0
WINDOW 39 0 0 Left 0
WINDOW 0 45 45 Left 0
WINDOW 3 45 73 Left 0
SYMATTR InstName V5
SYMATTR Value 2.5V
SYMBOL ind2 208 336 R270
WINDOW 0 32 56 VTop 0
WINDOW 3 4 56 VBottom 0
SYMATTR InstName LoL
SYMATTR Value 1kH
SYMBOL Opamps\\opamp 368 256 M0
WINDOW 0 23 1 Right 0
WINDOW 39 47 24 Right 0
SYMATTR InstName U1
SYMATTR SpiceLine Aol=1K
SYMBOL BOOST-CCM-VM-AC 0 0 R0
SYMATTR InstName X2
TEXT -496 552 Left 0 !.ac oct 1000 1 100k
TEXT -496 488 Left 0 !.lib opamp.sub
TEXT -496 520 Left 0 !.step param Rlf 0.01 0.5 0.082
RECTANGLE Normal 688 576 -512 -112
