Version 4
SHEET 1 1148 680
WIRE 144 112 -176 112
WIRE 176 128 -160 128
WIRE 224 128 176 128
WIRE 304 128 224 128
WIRE -112 160 -128 160
WIRE 144 160 144 112
WIRE 144 160 112 160
WIRE 224 176 224 128
WIRE 176 208 176 128
WIRE 192 208 176 208
WIRE -112 224 -144 224
WIRE 144 224 112 224
WIRE -160 288 -160 128
WIRE -112 288 -160 288
WIRE 144 288 144 224
WIRE 144 288 112 288
WIRE 224 288 224 240
WIRE 224 288 144 288
WIRE 272 288 224 288
WIRE -176 352 -176 112
WIRE -112 352 -176 352
WIRE 128 352 112 352
WIRE 128 384 128 352
WIRE 128 384 -16 384
WIRE -144 400 -144 224
WIRE 224 400 224 288
WIRE 224 400 -144 400
WIRE -176 416 -176 352
WIRE -16 432 -16 384
WIRE 224 432 224 400
WIRE -176 528 -176 496
WIRE -128 528 -128 160
WIRE -128 528 -176 528
WIRE -16 528 -16 496
WIRE -16 528 -128 528
WIRE 224 528 224 496
WIRE 224 528 -16 528
WIRE -176 544 -176 528
FLAG -176 544 0
FLAG 304 128 Out
IOPIN 304 128 Out
FLAG 272 288 Ramp
IOPIN 272 288 Out
SYMBOL Robertugo\\555_ALL 48 272 R0
SYMATTR InstName U1
SYMBOL cap 208 432 R0
SYMATTR InstName Ct
SYMATTR Value 10n
SYMBOL cap -32 432 R0
SYMATTR InstName Cbp
SYMATTR Value 10n
SYMBOL voltage -176 400 R0
WINDOW 0 16 18 Left 0
WINDOW 3 -28 57 Left 0
SYMATTR InstName V+
SYMATTR Value {Vdd}
SYMBOL Robertugo\\Pote 208 144 R0
WINDOW 123 95 90 Center 0
SYMATTR InstName U2
SYMATTR Value Rt=10k
SYMATTR Value2 Set=cursor
TEXT 406 208 Left 0 !.tran 2m
TEXT 400 232 Left 0 !.params: Vdd 12 Ronx=.1 \n.step param cursor  .1 .9 .2\n.meas tran ta FIND time WHEN V(out)={Vdd/2} td=1m rise=1\n.meas tran tb FIND time WHEN V(out)={Vdd/2} td=1m rise=11\n.meas tran Frec PARAM 10/(tb-ta)\n.Meas tran Tc FIND time WHEN V(Out)={Vdd/2} td=1m fall=1\n.Meas tran Td FIND time WHEN V(Out)={Vdd/2} td=1m fall=2\n.Meas tran T1 Param  (Tc-Ta)\n.Meas tran T2  Param  (Td-Ta)\n.Meas tran Ton Param If (T1>0, T1, T2)\n.Meas tran Duty% Param  Ton*Frec*100
