Version 4
SHEET 1 1260 680
WIRE 16 128 -96 128
WIRE 288 128 16 128
WIRE 352 128 288 128
WIRE 48 160 0 160
WIRE 288 160 288 128
WIRE 288 160 272 160
WIRE 320 160 288 160
WIRE 400 160 384 160
WIRE 48 224 32 224
WIRE 288 224 272 224
WIRE 304 224 288 224
WIRE 400 224 400 160
WIRE 400 224 368 224
WIRE 288 256 288 224
WIRE 336 256 288 256
WIRE -96 272 -96 128
WIRE -32 288 -32 256
WIRE 48 288 -32 288
WIRE 288 288 272 288
WIRE 400 288 400 224
WIRE 400 288 288 288
WIRE 400 320 400 288
WIRE 16 352 16 128
WIRE 48 352 16 352
WIRE 320 352 272 352
WIRE -96 384 -96 352
WIRE -64 384 -96 384
WIRE 32 384 32 224
WIRE 288 384 288 288
WIRE 288 384 32 384
WIRE -64 400 -64 384
WIRE -96 432 -96 384
WIRE 0 432 0 160
WIRE 0 432 -96 432
WIRE 320 432 320 416
WIRE 320 432 0 432
WIRE 400 432 400 384
WIRE 400 432 320 432
FLAG -32 256 Out
IOPIN -32 256 Out
FLAG -64 400 0
SYMBOL voltage -96 256 R0
WINDOW 0 10 14 Left 0
WINDOW 3 -32 57 Left 0
SYMATTR InstName V+
SYMATTR Value {Vdd}
SYMBOL Robertugo\\555_ALL 208 272 R0
WINDOW 38 -79 75 Left 0
WINDOW 0 -62 -82 Left 0
SYMATTR InstName U1
SYMBOL cap 304 352 R0
WINDOW 0 -43 47 Left 0
WINDOW 3 -43 68 Left 0
SYMATTR InstName Cbp
SYMATTR Value 10n
SYMBOL cap 384 320 R0
WINDOW 0 -35 34 Left 0
WINDOW 3 -33 61 Left 0
SYMATTR InstName Ct
SYMATTR Value 10n
SYMBOL Robertugo\\Pote 288 144 M90
WINDOW 0 0 0 VRight 0
WINDOW 3 -4 84 VRight 0
WINDOW 123 43 51 VCenter 0
SYMATTR InstName Uon
SYMATTR Value Rt=100K
SYMATTR Value2 Set=cursor
SYMBOL Robertugo\\Pote 272 240 R270
WINDOW 0 -8 77 VRight 0
WINDOW 3 -71 27 VRight 0
WINDOW 123 -34 66 VCenter 0
SYMATTR InstName Uoff
SYMATTR Value Rt=10K
SYMATTR Value2 Set=cursor
TEXT 494 138 Left 0 !.tran 0 10m 0 2u startup
TEXT -96 448 Left 0 ;Si Rton>>Rtoff, la frec. depende solo de Rton.
TEXT 488 160 Left 0 !.params: Vdd 12 Ronx=.1 \n.step param Cursor  .1 .9 .2\n.meas tran ta FIND time WHEN V(out)={Vdd/2} td=1m rise=1\n.meas tran tb FIND time WHEN V(out)={Vdd/2} td=1m rise=11\n.meas tran Frec PARAM 10/(tb-ta)\n.Meas tran Tc FIND time WHEN V(Out)={Vdd/2} td=1m fall=1\n.Meas tran Td FIND time WHEN V(Out)={Vdd/2} td=1m fall=2\n.Meas tran T1 Param  (Tc-Ta)\n.Meas tran T2  Param  (Td-Ta)\n.Meas tran Ton Param If (T1>0, T1, T2)\n.Meas tran Duty% Param  Ton*Frec*100
