Version 4
SHEET 1 980 1344
WIRE -1984 -192 -2176 -192
WIRE -1952 -192 -1984 -192
WIRE -1760 -192 -1872 -192
WIRE -832 -160 -944 -160
WIRE -704 -160 -832 -160
WIRE -544 -160 -704 -160
WIRE -368 -160 -544 -160
WIRE -272 -160 -368 -160
WIRE -1232 -144 -1264 -144
WIRE -1344 -128 -1344 -144
WIRE -368 -128 -368 -160
WIRE -2176 -112 -2176 -128
WIRE -2160 -112 -2176 -112
WIRE -2080 -112 -2096 -112
WIRE -2064 -112 -2080 -112
WIRE -2000 -112 -2000 -176
WIRE -1984 -112 -1984 -128
WIRE -1984 -112 -2000 -112
WIRE -1872 -112 -1872 -192
WIRE -1824 -112 -1872 -112
WIRE -1680 -112 -1680 -192
WIRE -1264 -112 -1264 -144
WIRE -544 -112 -544 -160
WIRE -1488 -96 -1504 -96
WIRE -1392 -96 -1424 -96
WIRE -1344 -96 -1344 -128
WIRE -1312 -96 -1344 -96
WIRE -1872 -80 -1872 -112
WIRE -1872 -80 -2064 -80
WIRE -1760 -80 -1872 -80
WIRE -1632 -80 -1760 -80
WIRE -1392 -80 -1392 -96
WIRE -48 -80 -96 -80
WIRE -2176 -64 -2176 -112
WIRE -1984 -64 -1984 -112
WIRE -1872 -64 -1872 -80
WIRE -1760 -64 -1760 -80
WIRE -1504 -32 -1504 -96
WIRE -1504 -32 -1552 -32
WIRE -1424 -32 -1424 -96
WIRE -768 -32 -768 -112
WIRE -704 -32 -704 -64
WIRE -704 -32 -768 -32
WIRE -1312 -16 -1312 -32
WIRE -1312 -16 -1344 -16
WIRE -368 -16 -368 -48
WIRE -2096 0 -2096 -32
WIRE -2096 0 -2176 0
WIRE -1984 0 -2096 0
WIRE -1872 0 -1904 0
WIRE -1840 0 -1872 0
WIRE -1392 0 -1392 -32
WIRE -1392 0 -1408 0
WIRE -2064 16 -2064 -80
WIRE -1680 32 -1680 -112
WIRE -1680 32 -2032 32
WIRE -1344 32 -1344 -16
WIRE -1264 32 -1344 32
WIRE -832 32 -832 -64
WIRE -544 32 -544 -32
WIRE -544 32 -832 32
WIRE -432 32 -544 32
WIRE -2160 48 -2176 48
WIRE -1488 64 -1504 64
WIRE -1392 64 -1424 64
WIRE -2176 80 -2176 48
WIRE -2144 80 -2176 80
WIRE -1392 80 -1392 64
WIRE -1344 80 -1344 32
WIRE -1312 80 -1344 80
WIRE -944 80 -944 -160
WIRE -736 80 -944 80
WIRE -2064 96 -2080 96
WIRE -2048 96 -2064 96
WIRE -2032 96 -2032 32
WIRE -2016 96 -2032 96
WIRE -1680 96 -1824 96
WIRE -1664 96 -1680 96
WIRE -1392 96 -1392 80
WIRE -2080 112 -2080 96
WIRE -1504 128 -1504 64
WIRE -1424 128 -1424 64
WIRE -704 128 -704 -32
WIRE -368 128 -368 80
WIRE -368 128 -496 128
WIRE -304 128 -368 128
WIRE -272 128 -304 128
WIRE -128 128 -272 128
WIRE -48 128 -48 -80
WIRE -2048 144 -2048 96
WIRE -832 144 -832 32
WIRE -2176 160 -2176 144
WIRE -2144 160 -2176 160
WIRE -1776 160 -1824 160
WIRE -1760 160 -1776 160
WIRE -1312 160 -1312 144
WIRE -1312 160 -1344 160
WIRE -736 160 -736 80
WIRE -560 176 -560 128
WIRE -560 176 -640 176
WIRE -2048 192 -2048 144
WIRE -2016 192 -2048 192
WIRE -1104 192 -1184 192
WIRE -896 192 -944 192
WIRE -2064 208 -2080 208
WIRE -1408 208 -1408 0
WIRE -1392 208 -1392 144
WIRE -1392 208 -1408 208
WIRE -1344 208 -1344 160
WIRE -1344 208 -1392 208
WIRE -1264 208 -1264 176
WIRE -1232 208 -1232 -144
WIRE -1232 208 -1264 208
WIRE -272 208 -272 128
WIRE -96 208 -128 208
WIRE 0 208 0 160
WIRE -1776 240 -2176 240
WIRE -640 240 -640 176
WIRE -1744 256 -1856 256
WIRE -1680 256 -1680 160
WIRE -1232 256 -1232 208
WIRE -2032 272 -2064 272
WIRE -1184 272 -1184 192
WIRE -944 272 -944 192
WIRE -944 272 -1104 272
WIRE -1552 288 -1552 -32
WIRE -1552 288 -1744 288
WIRE -832 288 -832 240
WIRE -768 288 -832 288
WIRE -704 288 -704 224
WIRE -704 288 -768 288
WIRE -640 304 -640 240
WIRE -624 304 -640 304
WIRE -496 304 -544 304
WIRE -368 304 -432 304
WIRE -2144 320 -2144 272
WIRE -2032 320 -2032 272
WIRE -1856 320 -1856 256
WIRE -1744 320 -1744 288
WIRE -1616 320 -1616 256
WIRE -1616 320 -1632 320
WIRE -1504 320 -1504 128
WIRE -160 320 -176 320
WIRE -2144 336 -2144 320
WIRE -2032 352 -2032 320
WIRE -1696 352 -1696 320
WIRE -1696 352 -2032 352
WIRE -1616 368 -1616 320
WIRE -1184 368 -1184 272
WIRE -944 368 -944 272
WIRE -640 368 -640 304
WIRE -576 368 -640 368
WIRE -496 368 -576 368
WIRE -368 368 -368 304
WIRE -368 368 -416 368
WIRE -272 368 -272 336
WIRE -272 368 -368 368
WIRE -176 368 -176 320
WIRE -176 368 -272 368
WIRE -48 368 -48 224
WIRE -48 368 -176 368
WIRE 0 368 -48 368
WIRE -1856 384 -1856 320
WIRE -272 384 -272 368
WIRE -2176 400 -2176 240
WIRE -2144 400 -2176 400
WIRE -1792 400 -1792 384
WIRE -1792 400 -2144 400
WIRE -1552 400 -1552 368
WIRE -1552 400 -1792 400
WIRE -1344 400 -1344 208
WIRE -1344 400 -1552 400
WIRE -1296 400 -1344 400
WIRE -736 416 -736 240
WIRE -736 416 -832 416
WIRE -704 416 -736 416
WIRE -576 416 -576 368
WIRE -1968 448 -2160 448
WIRE -1936 448 -1968 448
WIRE -1744 448 -1856 448
WIRE -768 480 -768 288
WIRE -704 480 -704 416
WIRE -1216 496 -1248 496
WIRE -832 496 -832 416
WIRE -1328 512 -1328 496
WIRE -1248 512 -1248 496
WIRE -304 512 -304 128
WIRE -2160 528 -2160 512
WIRE -2144 528 -2160 528
WIRE -2064 528 -2080 528
WIRE -2048 528 -2064 528
WIRE -1984 528 -1984 464
WIRE -1968 528 -1968 512
WIRE -1968 528 -1984 528
WIRE -1856 528 -1856 448
WIRE -1808 528 -1856 528
WIRE -1664 528 -1664 448
WIRE -640 528 -640 368
WIRE -576 528 -576 496
WIRE -304 528 -304 512
WIRE -1472 544 -1488 544
WIRE -1376 544 -1408 544
WIRE -1328 544 -1328 512
WIRE -1296 544 -1328 544
WIRE -944 544 -944 368
WIRE -896 544 -944 544
WIRE -1856 560 -1856 528
WIRE -1856 560 -2032 560
WIRE -1744 560 -1856 560
WIRE -1616 560 -1744 560
WIRE -1376 560 -1376 544
WIRE -1856 576 -1856 560
WIRE -1744 576 -1744 560
WIRE -48 576 -48 368
WIRE -2160 592 -2160 528
WIRE -1968 592 -1968 528
WIRE -1248 592 -1248 576
WIRE -96 592 -128 592
WIRE -1488 608 -1488 544
WIRE -1488 608 -1536 608
WIRE -1408 608 -1408 544
WIRE -384 608 -384 512
WIRE -352 608 -384 608
WIRE -1296 624 -1296 608
WIRE -1296 624 -1328 624
WIRE -1856 640 -1888 640
WIRE -1824 640 -1856 640
WIRE -1376 640 -1376 608
WIRE -1376 640 -1392 640
WIRE -576 640 -576 592
WIRE -384 640 -384 608
WIRE -304 640 -304 624
WIRE -2064 656 -2064 624
WIRE -2064 656 -2160 656
WIRE -1968 656 -2064 656
WIRE -1664 672 -1664 528
WIRE -1664 672 -2000 672
WIRE -1328 672 -1328 624
WIRE -1248 672 -1328 672
WIRE -304 688 -304 640
WIRE -304 688 -352 688
WIRE -272 688 -272 512
WIRE -272 688 -304 688
WIRE -128 688 -128 672
WIRE -128 688 -272 688
WIRE -2144 704 -2160 704
WIRE -1472 704 -1488 704
WIRE -1376 704 -1408 704
WIRE -1376 720 -1376 704
WIRE -1328 720 -1328 672
WIRE -1296 720 -1328 720
WIRE -352 720 -352 688
WIRE -2160 736 -2160 704
WIRE -2128 736 -2160 736
WIRE -2032 736 -2032 560
WIRE -1968 736 -1984 736
WIRE -1664 736 -1776 736
WIRE -1648 736 -1664 736
WIRE -1376 736 -1376 720
WIRE -768 736 -768 560
WIRE -768 736 -944 736
WIRE -2064 768 -2064 656
WIRE -1488 768 -1488 704
WIRE -1408 768 -1408 704
WIRE -832 768 -832 592
WIRE -528 768 -832 768
WIRE -416 768 -528 768
WIRE -1744 800 -1776 800
WIRE -1296 800 -1296 784
WIRE -1296 800 -1328 800
WIRE -2128 816 -2128 800
WIRE -2128 816 -2160 816
WIRE -2000 832 -2000 672
WIRE -1968 832 -2000 832
WIRE -704 832 -704 576
WIRE -704 832 -768 832
WIRE -528 832 -528 768
WIRE -1392 848 -1392 640
WIRE -1376 848 -1376 784
WIRE -1376 848 -1392 848
WIRE -1328 848 -1328 800
WIRE -1328 848 -1376 848
WIRE -1248 848 -1248 816
WIRE -1216 848 -1216 496
WIRE -1216 848 -1248 848
WIRE -352 848 -352 816
WIRE -2048 864 -2064 864
WIRE -2032 864 -2032 816
WIRE -2032 864 -2048 864
WIRE -1984 864 -1984 736
WIRE -1984 864 -2032 864
WIRE -832 864 -832 768
WIRE -704 864 -704 832
WIRE -48 864 -48 672
WIRE -48 864 -96 864
WIRE -1744 880 -2160 880
WIRE -1728 896 -1840 896
WIRE -1664 896 -1664 800
WIRE -1216 896 -1216 848
WIRE -2016 912 -2048 912
WIRE -768 912 -768 832
WIRE -1536 928 -1536 608
WIRE -1536 928 -1728 928
WIRE -2128 960 -2128 912
WIRE -2016 960 -2016 912
WIRE -1840 960 -1840 896
WIRE -1728 960 -1728 928
WIRE -1600 960 -1600 896
WIRE -1600 960 -1616 960
WIRE -1488 960 -1488 768
WIRE -944 960 -944 736
WIRE -832 960 -944 960
WIRE -704 960 -832 960
WIRE -528 960 -528 912
WIRE -528 960 -704 960
WIRE -352 960 -352 928
WIRE -352 960 -528 960
WIRE -272 960 -352 960
WIRE -2128 976 -2128 960
WIRE -2016 992 -2016 960
WIRE -1680 992 -1680 960
WIRE -1680 992 -2016 992
WIRE -1600 1008 -1600 960
WIRE -1840 1024 -1840 960
WIRE -2160 1040 -2160 880
WIRE -2128 1040 -2160 1040
WIRE -1776 1040 -1776 1024
WIRE -1776 1040 -2128 1040
WIRE -1536 1040 -1536 1008
WIRE -1536 1040 -1776 1040
WIRE -1328 1040 -1328 848
WIRE -1328 1040 -1536 1040
WIRE -1280 1040 -1328 1040
FLAG -1104 192 0
FLAG -272 -80 0
FLAG -272 880 0
FLAG -576 640 0
FLAG -1008 544 0
FLAG -496 240 0
FLAG -1024 448 0
FLAG -1104 368 in
FLAG 0 160 0
FLAG -96 -80 out+
FLAG -96 864 out-
FLAG -160 320 out-ctrl
FLAG -1328 512 V2+
FLAG -1616 560 out-
FLAG -1280 1040 V2-
FLAG -2064 624 0
FLAG -1888 640 0
FLAG -1216 896 0
FLAG -1568 736 V2-
FLAG -1664 736 Vl2
FLAG -1904 1024 Vl2
FLAG -1664 1008 Vl2
FLAG -2048 864 In-
FLAG -2144 704 out-ctrl
FLAG -1344 -128 V+
FLAG -1632 -80 out+
FLAG -1296 400 V-
FLAG -2096 -32 0
FLAG -1904 0 0
FLAG -1232 256 0
FLAG -1584 96 V-
FLAG -1680 96 Vl
FLAG -1920 384 Vl
FLAG -1680 368 Vl
FLAG -2048 144 In+
FLAG -2160 48 out-ctrl
FLAG -2064 208 0
SYMBOL npn -640 128 M0
WINDOW 0 24 48 Left 0
WINDOW 3 -42 -20 Left 0
SYMATTR InstName Q2
SYMATTR Value 2N5550
SYMBOL npn -416 720 R0
WINDOW 0 43 46 Left 0
WINDOW 3 69 72 Left 0
SYMATTR InstName Q3
SYMATTR Value 2N5550
SYMBOL pnp -640 576 R180
WINDOW 0 13 107 Left 0
WINDOW 3 -2 186 Left 0
SYMATTR InstName Q5
SYMATTR Value 2N5401
SYMBOL pnp -432 80 M180
WINDOW 0 32 46 Left 0
WINDOW 3 -55 -7 Left 0
SYMATTR InstName Q7
SYMATTR Value 2N5401
SYMBOL voltage -272 -176 R0
WINDOW 123 0 0 Left 0
WINDOW 39 43 85 VTop 0
WINDOW 0 -69 98 Left 0
WINDOW 3 -77 41 Left 0
SYMATTR SpiceLine Rser=.1
SYMATTR InstName V1
SYMATTR Value 95
SYMBOL voltage -272 976 R180
WINDOW 0 34 96 Left 0
WINDOW 3 26 38 Left 0
WINDOW 123 0 0 Left 0
WINDOW 39 -41 80 VBottom 0
SYMATTR InstName V2
SYMATTR Value -95
SYMATTR SpiceLine Rser=.1
SYMBOL res -1088 256 R90
WINDOW 0 -3 9 VBottom 0
WINDOW 3 -41 69 VTop 0
SYMATTR InstName R12
SYMATTR Value 15k
SYMBOL res -112 688 R180
WINDOW 0 36 76 Left 0
WINDOW 3 36 40 Left 0
SYMATTR InstName R13
SYMATTR Value 100
SYMBOL res -112 224 R180
WINDOW 0 36 76 Left 0
WINDOW 3 36 40 Left 0
SYMATTR InstName R14
SYMATTR Value 100
SYMBOL res -400 352 R90
WINDOW 0 65 55 VBottom 0
WINDOW 3 22 111 VTop 0
SYMATTR InstName R15
SYMATTR Value 10k
SYMBOL res -288 624 R90
WINDOW 0 47 135 VBottom 0
WINDOW 3 -26 140 VTop 0
SYMATTR InstName R20
SYMATTR Value 4800
SYMBOL res -288 496 R90
WINDOW 0 56 84 VBottom 0
WINDOW 3 -20 95 VTop 0
SYMATTR InstName R21
SYMATTR Value 10k
SYMBOL res -16 272 R0
WINDOW 0 -40 131 Invisible 0
WINDOW 3 -20 57 Invisible 0
SYMATTR InstName R22
SYMATTR Value 8
SYMBOL ind -16 192 R0
WINDOW 0 -34 82 Invisible 0
WINDOW 3 67 151 Invisible 0
SYMATTR InstName L1
SYMATTR Value 1.4m
SYMBOL voltage -1200 368 R270
WINDOW 0 32 56 Invisible 0
WINDOW 3 -32 56 Invisible 0
WINDOW 123 -32 56 VBottom 0
WINDOW 39 33 60 VTop 0
SYMATTR InstName V5
SYMATTR Value SINE(0 93 2000 25us)
SYMATTR SpiceLine Rser=.1
SYMBOL nmos -96 128 R0
WINDOW 0 -1 117 Left 0
WINDOW 3 138 840 Invisible 0
SYMATTR InstName M1
SYMATTR Value FDS5690
SYMBOL pmos -96 672 M180
WINDOW 0 3 -13 Left 0
WINDOW 3 131 -301 Invisible 0
SYMATTR InstName M2
SYMATTR Value FQB11P06
SYMBOL nmos -352 528 R0
WINDOW 3 386 441 Invisible 0
WINDOW 0 -33 53 Left 0
SYMATTR Value FDS5690
SYMATTR InstName M3
SYMBOL diode -288 272 R0
WINDOW 0 45 5 Left 0
WINDOW 3 -117 6 Left 0
SYMATTR InstName D3
SYMATTR Value 1N4148
SYMBOL diode -256 384 M0
WINDOW 0 -52 24 Left 0
WINDOW 3 67 39 Left 0
SYMATTR InstName D4
SYMATTR Value 1N4148
SYMBOL zener -256 272 R180
WINDOW 0 67 91 Left 0
WINDOW 3 48 51 Left 0
SYMATTR InstName D5
SYMATTR Value BZX84C15L
SYMBOL zener -256 512 R180
WINDOW 0 -36 13 Left 0
WINDOW 3 66 52 Left 0
SYMATTR InstName D6
SYMATTR Value BZX84C15L
SYMBOL cap -432 288 R90
WINDOW 0 52 -20 VBottom 0
WINDOW 3 23 74 VTop 0
SYMATTR InstName C7
SYMATTR Value 33p
SYMBOL current -736 160 R0
WINDOW 0 -67 43 Left 0
WINDOW 3 -67 97 Left 0
WINDOW 123 0 0 Left 0
WINDOW 39 0 0 Left 0
SYMATTR InstName I1
SYMATTR Value 2m
SYMBOL current -768 480 R0
WINDOW 3 30 66 Left 0
WINDOW 123 0 0 Left 0
WINDOW 39 0 0 Left 0
SYMATTR Value 2m
SYMATTR InstName I2
SYMBOL cap -560 592 R180
WINDOW 0 24 64 Left 0
WINDOW 3 24 8 Left 0
SYMATTR InstName C1
SYMATTR Value 1000µ
SYMBOL res -1008 352 R90
WINDOW 0 -12 63 VBottom 0
WINDOW 3 -36 33 VTop 0
SYMATTR InstName R4
SYMATTR Value 1
SYMBOL npn -896 144 R0
WINDOW 0 34 45 Left 0
WINDOW 3 -49 -27 Left 0
SYMATTR InstName Q1
SYMATTR Value 2N5550
SYMBOL pnp -896 592 M180
WINDOW 0 31 49 Left 0
WINDOW 3 -34 129 Left 0
SYMATTR InstName Q6
SYMATTR Value 2N5401
SYMBOL res -592 400 R0
SYMATTR InstName R2
SYMATTR Value 470
SYMBOL cap -944 528 R90
WINDOW 0 0 32 VBottom 0
WINDOW 3 32 32 VTop 0
SYMATTR InstName C5
SYMATTR Value 5p
SYMBOL pnp -768 -64 M180
WINDOW 0 31 49 Left 0
WINDOW 3 81 25 Left 0
SYMATTR InstName Q9
SYMATTR Value 2N5401
SYMBOL pnp -768 -64 R180
WINDOW 0 50 66 Left 0
WINDOW 3 -160 68 Left 0
SYMATTR InstName Q10
SYMATTR Value 2N5401
SYMBOL npn -768 864 M0
WINDOW 0 34 44 Left 0
WINDOW 3 -182 66 Left 0
SYMATTR InstName Q11
SYMATTR Value 2N5550
SYMBOL npn -768 864 R0
WINDOW 0 34 45 Left 0
WINDOW 3 96 27 Left 0
SYMATTR InstName Q12
SYMATTR Value 2N5550
SYMBOL cap -496 112 R90
WINDOW 0 0 32 VBottom 0
WINDOW 3 32 32 VTop 0
SYMATTR InstName C6
SYMATTR Value 68p
SYMBOL res -544 224 R90
WINDOW 0 -11 76 VBottom 0
WINDOW 3 31 72 VTop 0
SYMATTR InstName R1
SYMATTR Value 4.7
SYMBOL cap -496 224 R90
WINDOW 0 7 -8 VBottom 0
WINDOW 3 -28 70 VTop 0
SYMATTR InstName C8
SYMATTR Value 2200p
SYMBOL res -528 288 R90
WINDOW 0 72 27 VBottom 0
WINDOW 3 40 74 VTop 0
SYMATTR InstName R3
SYMATTR Value 100
SYMBOL res -1040 352 R0
SYMATTR InstName R5
SYMATTR Value .047
SYMBOL res -928 352 R90
WINDOW 0 -12 81 VBottom 0
WINDOW 3 -36 33 VTop 0
SYMATTR InstName R6
SYMATTR Value 10
SYMBOL sw -1328 816 M180
WINDOW 3 48 46 Invisible 0
WINDOW 0 51 67 Invisible 0
SYMATTR Value SWb
SYMATTR InstName S1
SYMBOL cap -1392 544 R0
WINDOW 0 216 563 Invisible 0
WINDOW 3 37 40 Invisible 0
SYMATTR InstName C2
SYMATTR Value 5p
SYMBOL cap -1392 720 R0
WINDOW 0 183 185 Invisible 0
WINDOW 3 36 36 Invisible 0
SYMATTR InstName C9
SYMATTR Value 5p
SYMBOL voltage -1232 848 R90
WINDOW 123 32 56 VTop 0
WINDOW 3 1 124 VTop 0
WINDOW 0 18 55 Invisible 0
SYMATTR Value 160
SYMATTR InstName V3
SYMATTR SpiceLine Rser=.01
SYMBOL voltage -1344 496 R270
WINDOW 3 24 -31 VBottom 0
WINDOW 123 -32 56 VBottom 0
WINDOW 0 -12 58 Invisible 0
SYMATTR Value 160
SYMATTR InstName V4
SYMATTR SpiceLine Rser=.01
SYMBOL diode -1408 560 M270
WINDOW 0 28 62 Invisible 0
WINDOW 3 4 41 VBottom 0
SYMATTR InstName D1
SYMATTR Value 1N4148
SYMBOL diode -1408 688 R90
WINDOW 0 13 70 Invisible 0
WINDOW 3 -27 39 VTop 0
SYMATTR InstName D2
SYMATTR Value 1N4148
SYMBOL res -1392 592 R90
WINDOW 0 63 24 Invisible 0
WINDOW 3 33 62 VTop 0
SYMATTR InstName R7
SYMATTR Value 47k
SYMBOL res -1392 752 R90
WINDOW 0 60 22 Invisible 0
WINDOW 3 -28 53 VTop 0
SYMATTR InstName R8
SYMATTR Value 47k
SYMBOL CD40106B.i -2080 912 R0
WINDOW 0 29 21 Invisible 0
WINDOW 3 -35 96 Invisible 0
SYMATTR InstName U1
SYMATTR SpiceModel VDD V-
SYMATTR SpiceLine VDD=5  SPEED=0.10  TRIPDT=5e-9
SYMBOL CD40106B.i -1968 912 R0
WINDOW 0 47 67 Invisible 0
WINDOW 3 -109 105 Invisible 0
SYMATTR InstName U2
SYMATTR SpiceModel VDD V-
SYMATTR SpiceLine VDD=5  SPEED=0.10  TRIPDT=5e-9
SYMBOL cap -1264 752 R0
WINDOW 0 24 8 Invisible 0
WINDOW 3 -17 48 Left 0
SYMATTR InstName C10
SYMATTR Value 2.7µ
SYMBOL cap -2080 512 R90
WINDOW 0 8 51 VBottom 0
WINDOW 3 32 32 VTop 0
SYMATTR InstName C11
SYMATTR Value 1µ
SYMBOL diode -1280 608 R180
WINDOW 0 -157 -504 Invisible 0
WINDOW 3 -80 -133 Invisible 0
SYMATTR InstName D7
SYMATTR Value MBR20100CT
SYMBOL diode -1280 784 R180
WINDOW 0 -97 -118 Invisible 0
WINDOW 3 -74 29 Invisible 0
SYMATTR InstName D8
SYMATTR Value MBR20100CT
SYMBOL sw -1328 640 M180
WINDOW 3 18 25 Invisible 0
WINDOW 0 51 67 Invisible 0
SYMATTR Value SWb
SYMATTR InstName S2
SYMBOL CD40106B.i -1792 912 R0
WINDOW 0 28 82 Invisible 0
WINDOW 3 -343 -97 Invisible 0
SYMATTR InstName U3
SYMATTR SpiceModel VDD V-
SYMATTR SpiceLine VDD=5  SPEED=0.20  TRIPDT=5e-9
SYMBOL CD40106B.i -1552 912 R0
WINDOW 0 39 65 Invisible 0
WINDOW 3 -20 123 Invisible 0
SYMATTR InstName U4
SYMATTR SpiceModel VDD V-
SYMATTR SpiceLine VDD=5  SPEED=0.20  TRIPDT=5e-9
SYMBOL res -1648 432 R90
WINDOW 0 -11 42 Invisible 0
WINDOW 3 25 129 VTop 0
SYMATTR InstName R9
SYMATTR Value 750
SYMBOL cap -2144 976 R0
WINDOW 0 -72 129 Invisible 0
WINDOW 3 28 49 Left 0
SYMATTR InstName C12
SYMATTR Value 68p
SYMBOL res -2032 896 R90
WINDOW 0 20 -34 Invisible 0
WINDOW 3 15 -49 VTop 0
SYMATTR InstName R10
SYMATTR Value 220k
SYMBOL cap -1904 976 R270
WINDOW 0 -56 78 Invisible 0
WINDOW 3 56 -2 VBottom 0
SYMATTR InstName C13
SYMATTR Value 33p
SYMBOL cap -1680 976 R270
WINDOW 0 20 6 Invisible 0
WINDOW 3 30 -20 VBottom 0
SYMATTR InstName C14
SYMATTR Value 33p
SYMBOL diode -1664 880 R90
WINDOW 0 0 32 VBottom 0
WINDOW 3 18 96 VTop 0
SYMATTR InstName D9
SYMATTR Value 1N4148
SYMBOL diode -1664 880 M90
WINDOW 0 0 32 VBottom 0
WINDOW 3 -62 57 VTop 0
SYMATTR InstName D10
SYMATTR Value 1N4148
SYMBOL res -1760 784 R0
WINDOW 0 27 84 Invisible 0
WINDOW 3 -62 81 Left 0
SYMATTR InstName R11
SYMATTR Value 470
SYMBOL ind2 -1264 656 R0
WINDOW 0 -19 -6 Left 0
WINDOW 3 -52 41 Left 0
SYMATTR InstName L2
SYMATTR Value 200µ
SYMBOL ind2 -1952 512 R90
WINDOW 0 80 48 VBottom 0
WINDOW 3 77 52 VTop 0
SYMATTR InstName L3
SYMATTR Value 100µ
SYMBOL schottky -2176 592 R0
WINDOW 0 24 0 Invisible 0
WINDOW 3 24 72 Invisible 0
SYMATTR InstName D11
SYMATTR Value MUR460
SYMBOL schottky -1984 592 R0
WINDOW 3 -50 24 Invisible 0
WINDOW 0 24 0 Invisible 0
SYMATTR Value MUR460
SYMATTR InstName D12
SYMBOL schottky -2176 448 R0
WINDOW 0 24 0 Invisible 0
WINDOW 3 24 72 Invisible 0
SYMATTR InstName D13
SYMATTR Value MUR460
SYMBOL schottky -1984 448 R0
WINDOW 0 24 0 Invisible 0
WINDOW 3 24 72 Invisible 0
SYMATTR InstName D14
SYMATTR Value MUR460
SYMBOL cap -1872 576 R0
WINDOW 0 -72 129 Invisible 0
WINDOW 3 -40 12 Left 0
SYMATTR InstName C15
SYMATTR Value 6µ
SYMBOL ind -1840 432 R90
WINDOW 0 5 56 Invisible 0
WINDOW 3 32 56 VTop 0
SYMATTR InstName L4
SYMATTR Value 75µ
SYMBOL cap -1728 544 R270
WINDOW 0 -56 78 Invisible 0
WINDOW 3 66 17 VBottom 0
SYMATTR InstName C16
SYMATTR Value 10n
SYMBOL voltage -1664 736 R270
WINDOW 3 26 58 VBottom 0
WINDOW 123 -32 56 VBottom 0
WINDOW 39 -32 57 VBottom 0
WINDOW 0 -7 59 Invisible 0
SYMATTR Value 5
SYMATTR SpiceLine Rser=.01
SYMATTR InstName V6
SYMBOL res -1728 624 R90
WINDOW 0 0 56 Invisible 0
WINDOW 3 -45 90 VTop 0
SYMATTR InstName R16
SYMATTR Value 2.2
SYMBOL diode -1840 1040 M270
WINDOW 0 28 62 Invisible 0
WINDOW 3 66 38 Invisible 0
SYMATTR InstName D15
SYMATTR Value 1N4148
SYMBOL diode -1600 1024 M270
WINDOW 0 28 62 Invisible 0
WINDOW 3 66 38 Invisible 0
SYMATTR InstName D16
SYMATTR Value 1N4148
SYMBOL diode -1776 1040 M270
WINDOW 0 28 62 Invisible 0
WINDOW 3 66 38 Invisible 0
SYMATTR InstName D17
SYMATTR Value 1N4148
SYMBOL diode -1536 1024 M270
WINDOW 0 28 62 Invisible 0
WINDOW 3 66 38 Invisible 0
SYMATTR InstName D18
SYMATTR Value 1N4148
SYMBOL res -1760 816 R270
WINDOW 0 33 28 VTop 0
WINDOW 3 0 56 VBottom 0
SYMATTR InstName R17
SYMATTR Value 8.2k
SYMBOL res -1968 448 R90
WINDOW 0 -11 42 Invisible 0
WINDOW 3 11 121 VTop 0
SYMATTR InstName R18
SYMATTR Value 270
SYMBOL cap -2080 464 R0
WINDOW 0 -72 129 Invisible 0
WINDOW 3 37 33 Left 0
SYMATTR InstName C17
SYMATTR Value 22n
SYMBOL res -1712 512 R90
WINDOW 0 -11 42 Invisible 0
WINDOW 3 -19 106 VTop 0
SYMATTR InstName R19
SYMATTR Value 27
SYMBOL Optos\\4N25 -1872 800 R0
WINDOW 0 49 -98 Invisible 0
WINDOW 3 -3 -99 Center 0
SYMATTR InstName U5
SYMBOL npn2 -2128 768 R0
WINDOW 0 29 61 Left 0
WINDOW 3 -54 93 Left 0
SYMATTR InstName Q4
SYMATTR Value 2N5550
SYMBOL res -2048 720 R0
WINDOW 0 27 84 Invisible 0
WINDOW 3 -30 79 Left 0
SYMATTR InstName R32
SYMATTR Value 1k
SYMBOL res -2176 720 R0
WINDOW 0 27 84 Invisible 0
WINDOW 3 6 115 Left 0
SYMATTR InstName R33
SYMATTR Value 10k
SYMBOL cap -2144 736 R0
WINDOW 3 31 25 Left 0
WINDOW 0 22 0 Left 0
SYMATTR Value 2.2n
SYMATTR InstName C28
SYMBOL sw -1344 176 M180
WINDOW 3 48 46 Invisible 0
WINDOW 0 51 67 Invisible 0
SYMATTR Value SWb
SYMATTR InstName S3
SYMBOL cap -1408 -96 R0
WINDOW 0 216 563 Invisible 0
WINDOW 3 37 40 Invisible 0
SYMATTR InstName C18
SYMATTR Value 5p
SYMBOL cap -1408 80 R0
WINDOW 0 183 185 Invisible 0
WINDOW 3 36 36 Invisible 0
SYMATTR InstName C19
SYMATTR Value 5p
SYMBOL voltage -1248 208 R90
WINDOW 123 32 56 VTop 0
WINDOW 3 1 124 VTop 0
WINDOW 0 18 55 Invisible 0
SYMATTR Value 160
SYMATTR InstName V8
SYMATTR SpiceLine Rser=.01
SYMBOL voltage -1360 -144 R270
WINDOW 3 24 -31 VBottom 0
WINDOW 123 -32 56 VBottom 0
WINDOW 0 -12 58 Invisible 0
SYMATTR Value 160
SYMATTR InstName V9
SYMATTR SpiceLine Rser=.01
SYMBOL diode -1424 -80 M270
WINDOW 0 28 62 Invisible 0
WINDOW 3 -6 43 VBottom 0
SYMATTR InstName D19
SYMATTR Value 1N4148
SYMBOL diode -1424 48 R90
WINDOW 0 13 70 Invisible 0
WINDOW 3 -27 39 VTop 0
SYMATTR InstName D20
SYMATTR Value 1N4148
SYMBOL res -1408 -48 R90
WINDOW 0 63 24 Invisible 0
WINDOW 3 33 59 VTop 0
SYMATTR InstName R23
SYMATTR Value 47k
SYMBOL res -1408 112 R90
WINDOW 0 60 22 Invisible 0
WINDOW 3 -28 53 VTop 0
SYMATTR InstName R24
SYMATTR Value 47k
SYMBOL CD40106B.i -2096 272 R0
WINDOW 0 29 21 Invisible 0
WINDOW 3 -35 96 Invisible 0
SYMATTR InstName U6
SYMATTR SpiceModel VDD V-
SYMATTR SpiceLine VDD=5  SPEED=0.10  TRIPDT=5e-9
SYMBOL CD40106B.i -1984 272 R0
WINDOW 0 47 67 Invisible 0
WINDOW 3 -109 105 Invisible 0
SYMATTR InstName U7
SYMATTR SpiceModel VDD V-
SYMATTR SpiceLine VDD=5  SPEED=0.10  TRIPDT=5e-9
SYMBOL cap -1280 112 R0
WINDOW 0 24 8 Invisible 0
WINDOW 3 -17 48 Left 0
SYMATTR InstName C20
SYMATTR Value 2.7µ
SYMBOL cap -2096 -128 R90
WINDOW 0 11 44 VBottom 0
WINDOW 3 26 53 VTop 0
SYMATTR InstName C21
SYMATTR Value 1µ
SYMBOL diode -1296 -32 R180
WINDOW 0 -157 -504 Invisible 0
WINDOW 3 -80 -133 Invisible 0
SYMATTR InstName D21
SYMATTR Value MBR20100CT
SYMBOL diode -1296 144 R180
WINDOW 0 -97 -118 Invisible 0
WINDOW 3 -74 29 Invisible 0
SYMATTR InstName D22
SYMATTR Value MBR20100CT
SYMBOL sw -1344 0 M180
WINDOW 3 18 25 Invisible 0
WINDOW 0 51 67 Invisible 0
SYMATTR Value SWb
SYMATTR InstName S4
SYMBOL CD40106B.i -1808 272 R0
WINDOW 0 28 82 Invisible 0
WINDOW 3 -343 -97 Invisible 0
SYMATTR InstName U8
SYMATTR SpiceModel VDD V-
SYMATTR SpiceLine VDD=5  SPEED=0.20  TRIPDT=5e-9
SYMBOL CD40106B.i -1568 272 R0
WINDOW 0 39 65 Invisible 0
WINDOW 3 -20 123 Invisible 0
SYMATTR InstName U9
SYMATTR SpiceModel VDD V-
SYMATTR SpiceLine VDD=5  SPEED=0.20  TRIPDT=5e-9
SYMBOL res -1664 -208 R90
WINDOW 0 -11 42 Invisible 0
WINDOW 3 25 129 VTop 0
SYMATTR InstName R25
SYMATTR Value 750
SYMBOL cap -2160 336 R0
WINDOW 0 -72 129 Invisible 0
WINDOW 3 28 49 Left 0
SYMATTR InstName C22
SYMATTR Value 68p
SYMBOL res -2048 256 R90
WINDOW 0 20 -34 Invisible 0
WINDOW 3 15 -49 VTop 0
SYMATTR InstName R26
SYMATTR Value 220k
SYMBOL cap -1920 336 R270
WINDOW 0 -56 78 Invisible 0
WINDOW 3 56 -2 VBottom 0
SYMATTR InstName C23
SYMATTR Value 33p
SYMBOL cap -1696 336 R270
WINDOW 0 20 6 Invisible 0
WINDOW 3 30 -20 VBottom 0
SYMATTR InstName C24
SYMATTR Value 33p
SYMBOL diode -1680 240 R90
WINDOW 0 0 32 VBottom 0
WINDOW 3 22 90 VTop 0
SYMATTR InstName D23
SYMATTR Value 1N4148
SYMBOL diode -1680 240 M90
WINDOW 0 0 32 VBottom 0
WINDOW 3 -60 65 VTop 0
SYMATTR InstName D24
SYMATTR Value 1N4148
SYMBOL res -1792 144 R0
WINDOW 0 27 84 Invisible 0
WINDOW 3 -52 81 Left 0
SYMATTR InstName R27
SYMATTR Value 470
SYMBOL ind2 -1280 16 R0
WINDOW 0 -46 -4 Left 0
WINDOW 3 -52 41 Left 0
SYMATTR InstName L6
SYMATTR Value 200µ
SYMBOL ind2 -1968 -128 R90
WINDOW 0 80 62 VBottom 0
WINDOW 3 82 62 VTop 0
SYMATTR InstName L7
SYMATTR Value 100µ
SYMBOL schottky -2160 0 R180
WINDOW 0 24 72 Invisible 0
WINDOW 3 -91 -29 Invisible 0
SYMATTR InstName D25
SYMATTR Value MUR460
SYMBOL schottky -1968 0 R180
WINDOW 0 24 72 Invisible 0
WINDOW 3 -71 23 Invisible 0
SYMATTR InstName D26
SYMATTR Value MUR460
SYMBOL schottky -2160 -128 R180
WINDOW 0 24 72 Invisible 0
WINDOW 3 18 167 Invisible 0
SYMATTR InstName D27
SYMATTR Value MUR460
SYMBOL schottky -1968 -128 R180
WINDOW 0 24 72 Invisible 0
WINDOW 3 14 184 Invisible 0
SYMATTR InstName D28
SYMATTR Value MUR460
SYMBOL cap -1888 -64 R0
WINDOW 0 -72 129 Invisible 0
WINDOW 3 -44 7 Left 0
SYMATTR InstName C25
SYMATTR Value 6µ
SYMBOL ind -1856 -208 R90
WINDOW 0 5 56 Invisible 0
WINDOW 3 32 56 VTop 0
SYMATTR InstName L8
SYMATTR Value 75µ
SYMBOL cap -1744 -96 R270
WINDOW 0 -56 78 Invisible 0
WINDOW 3 66 17 VBottom 0
SYMATTR InstName C26
SYMATTR Value 10n
SYMBOL voltage -1680 96 R270
WINDOW 3 24 56 VBottom 0
WINDOW 123 -32 56 VBottom 0
WINDOW 39 -25 55 VBottom 0
WINDOW 0 -7 59 Invisible 0
SYMATTR Value 5
SYMATTR SpiceLine Rser=.01
SYMATTR InstName V10
SYMBOL res -1744 -16 R90
WINDOW 0 0 56 Invisible 0
WINDOW 3 -45 90 VTop 0
SYMATTR InstName R28
SYMATTR Value 2.2
SYMBOL diode -1856 400 M270
WINDOW 0 28 62 Invisible 0
WINDOW 3 66 38 Invisible 0
SYMATTR InstName D29
SYMATTR Value 1N4148
SYMBOL diode -1616 384 M270
WINDOW 0 28 62 Invisible 0
WINDOW 3 66 38 Invisible 0
SYMATTR InstName D30
SYMATTR Value 1N4148
SYMBOL diode -1792 400 M270
WINDOW 0 28 62 Invisible 0
WINDOW 3 66 38 Invisible 0
SYMATTR InstName D31
SYMATTR Value 1N4148
SYMBOL diode -1552 384 M270
WINDOW 0 28 62 Invisible 0
WINDOW 3 66 38 Invisible 0
SYMATTR InstName D32
SYMATTR Value 1N4148
SYMBOL res -1776 176 R270
WINDOW 0 32 56 VTop 0
WINDOW 3 0 56 VBottom 0
SYMATTR InstName R29
SYMATTR Value 8.2k
SYMBOL res -1984 -192 R90
WINDOW 0 -11 42 Invisible 0
WINDOW 3 9 117 VTop 0
SYMATTR InstName R30
SYMATTR Value 270
SYMBOL cap -2096 -176 R0
WINDOW 0 -72 129 Invisible 0
WINDOW 3 35 31 Left 0
SYMATTR InstName C27
SYMATTR Value 22n
SYMBOL res -1728 -128 R90
WINDOW 0 -11 42 Invisible 0
WINDOW 3 -19 106 VTop 0
SYMATTR InstName R31
SYMATTR Value 27
SYMBOL Optos\\4N25 -1920 160 R0
WINDOW 0 42 -101 Invisible 0
WINDOW 3 -30 -97 Center 0
SYMATTR InstName U10
SYMBOL pnp2 -2144 208 M180
WINDOW 3 126 -152 Left 0
WINDOW 0 35 44 Left 0
SYMATTR Value 2N5401
SYMATTR InstName Q8
SYMBOL res -2080 0 R0
WINDOW 0 27 84 Invisible 0
WINDOW 3 -16 26 Left 0
SYMATTR InstName R34
SYMATTR Value 1k
SYMBOL res -2160 64 R0
WINDOW 0 27 84 Invisible 0
WINDOW 3 29 43 Left 0
SYMATTR InstName R35
SYMATTR Value 10k
SYMBOL cap -2192 80 R0
WINDOW 0 9 127 Left 0
WINDOW 3 9 103 Left 0
SYMATTR InstName C29
SYMATTR Value 2.2n
SYMBOL cap -1776 -64 R0
WINDOW 0 -72 129 Invisible 0
WINDOW 3 -23 8 Left 0
SYMATTR InstName C30
SYMATTR Value 2µ
SYMBOL cap -1760 576 R0
WINDOW 0 -72 129 Invisible 0
WINDOW 3 -20 9 Left 0
SYMATTR InstName C31
SYMATTR Value 2µ
SYMBOL res -352 -144 M0
SYMATTR InstName R36
SYMATTR Value 47
SYMBOL res -336 832 M0
SYMATTR InstName R37
SYMATTR Value 47
SYMBOL res -544 816 R0
SYMATTR InstName R38
SYMATTR Value 100k
SYMBOL res -560 -128 R0
SYMATTR InstName R39
SYMATTR Value 100k
SYMBOL res -1280 -64 R0
WINDOW 0 27 84 Invisible 0
WINDOW 3 59 92 Left 0
SYMATTR InstName R40
SYMATTR Value 220
SYMBOL cap -1280 -112 R0
WINDOW 0 9 127 Invisible 0
WINDOW 3 57 30 Left 0
SYMATTR InstName C3
SYMATTR Value 22n
SYMBOL cap -1264 512 R0
WINDOW 0 9 127 Invisible 0
WINDOW 3 67 44 Left 0
SYMATTR InstName C32
SYMATTR Value 22n
SYMBOL res -1264 576 R0
WINDOW 0 27 84 Invisible 0
WINDOW 3 64 66 Left 0
SYMATTR InstName R41
SYMATTR Value 220
TEXT -160 400 Left 0 ;speaker
TEXT -416 984 Left 0 !.tran 0 5000u 10u 10000n startup
TEXT -1096 624 Left 0 !.lib CD4000.LIB
TEXT -800 984 Center 0 !.model SWb SW(Ron=.1 Roff=10k Von=3 Voff=2)
TEXT -1504 984 Left 0 !K1 L2 L3 1.0
TEXT -1656 520 Left 0 !.option noopiter
TEXT -1520 344 Left 0 !K2 L6 L7 1.0
TEXT -1656 -120 Left 0 !.option noopiter
TEXT -296 728 Left 0 ;4 IRF9640 & gate res
TEXT -304 88 Left 0 ;4 IRF 640 & gate res
TEXT -24 320 VLeft 0 ;8 ohm load
LINE Normal -352 656 -352 688
LINE Normal -336 672 -352 656
LINE Normal -352 656 -336 672
LINE Normal -368 672 -352 656
