Version 4
SHEET 1 1384 1160
WIRE 688 160 640 160
WIRE 720 160 688 160
WIRE 384 192 352 192
WIRE 448 192 384 192
WIRE 688 192 640 192
WIRE 720 192 688 192
WIRE 976 192 912 192
WIRE 1216 208 1168 208
WIRE 352 224 352 192
WIRE 688 224 640 224
WIRE 720 224 688 224
WIRE 1168 240 1168 208
WIRE 352 336 352 304
WIRE 496 384 496 352
WIRE 496 400 496 384
WIRE 1008 464 1008 432
WIRE 496 512 496 480
WIRE 1008 576 1008 544
WIRE 704 752 624 752
WIRE 1216 768 1168 768
WIRE 368 784 336 784
WIRE 432 784 368 784
WIRE 704 784 624 784
WIRE 960 784 896 784
WIRE 1168 800 1168 768
WIRE 704 816 624 816
WIRE 480 976 480 944
WIRE 480 992 480 976
FLAG 496 512 0
FLAG 976 192 Vout_error
FLAG 832 352 0
FLAG 800 352 VDD
FLAG 816 32 VDD
FLAG 1008 576 0
FLAG 1008 432 VDD
FLAG 688 224 b0
FLAG 688 192 b1
FLAG 688 160 b2
FLAG 544 32 VDD
FLAG 560 352 0
FLAG 528 352 VDD
FLAG 352 336 0
FLAG 384 192 Vin
FLAG 1168 320 0
FLAG 1120 256 Vout_error
FLAG 1120 304 Vin
FLAG 1216 208 Qe_error
FLAG 496 384 clk
FLAG 960 784 Vout
FLAG 816 944 0
FLAG 784 944 VDD
FLAG 800 624 VDD
FLAG 528 624 VDD
FLAG 544 944 0
FLAG 512 944 VDD
FLAG 368 784 Vin
FLAG 1168 880 0
FLAG 1120 816 Vout
FLAG 1120 864 Vin
FLAG 1216 768 Qe_no_error
FLAG 480 976 clk
SYMBOL voltage 496 384 R0
WINDOW 0 36 42 Left 0
WINDOW 3 -143 166 Left 0
WINDOW 123 0 0 Left 0
WINDOW 39 0 0 Left 0
SYMATTR InstName Vclock
SYMATTR Value PULSE(0 1 5n 100p 100p 4.9n 10n)
SYMBOL voltage 1008 448 R0
WINDOW 0 36 42 Left 0
WINDOW 3 44 15 Left 0
WINDOW 123 0 0 Left 0
WINDOW 39 0 0 Left 0
SYMATTR InstName VDD
SYMATTR Value 1
SYMBOL voltage 352 208 R0
WINDOW 0 36 42 Left 0
WINDOW 3 -73 165 Left 0
WINDOW 123 0 0 Left 0
WINDOW 39 0 0 Left 0
SYMATTR InstName Vin
SYMATTR Value PULSE(0 1 0 10u)
SYMBOL Ideal_3_bit_DAC 736 336 R0
SYMATTR InstName X2
SYMBOL e 1168 224 R0
SYMATTR InstName Eqe
SYMATTR Value 1
SYMBOL Error_3_bit_ADC 464 336 R0
SYMATTR InstName X1
SYMBOL Ideal_3_bit_DAC 720 928 R0
SYMATTR InstName X3
SYMBOL e 1168 784 R0
SYMATTR InstName Eqe1
SYMATTR Value 1
SYMBOL Ideal_3_bit_ADC 448 928 R0
SYMATTR InstName X4
TEXT 680 464 Left 0 !.tran 0 10u 0 .1n uic
TEXT 680 432 Left 0 !.options plotwinsize=0
TEXT 928 120 Left 0 ;3-bit ADC transfer curves with error
TEXT 912 712 Left 0 ;Ideal 3-bit ADC transfer curves
