* trafos.lib
* Transformer Specified With Inductance Per Coil
* "Primary" inductance    L1, series resistor R1
* "Secondary" inductance  L2, series resistor R2
* "Secondary" inductance  L3, series resistor R3
* Coupling factor       K123 <=1
* Ideal transformer voltage ratio = SQRT(L2/L1), SQRT(L3/L1)
*
.SUBCKT TRAFO150W 1 2 3 4 5 6 
*
L1 1 2 {L1}  Rser={R1}
L2 3 4 {L2}  Rser={R2}
L3 5 6 {L3}  Rser={R3}
K123 L1 L2 L3 {K}
*
.ENDS TRAFO150W