.MODEL BAS16L D
+ IS = 6.0289E-9
+ N = 2.1283
+ RS = 1.0000E-3
+ IKF = 37.638E-3
+ CJO = 5.641E-013
+ M = 0.05188 
+ VJ = 0.01571
+ ISR = 2.0646e-9
+ NR = 4.9950
+ BV = 113.60
+ IBV = 10
+ TT = 4.5000E-9
