.SUBCKT BAS16VY 1 2 3 4 5 6
*
D1 1 6 BAS16VY
D2 2 5 BAS16VY
D3 3 4 BAS16VY
*
.MODEL BAS16VY D
+ IS=6.0289E-9
+ N=2.1283
+ RS=1.0000E-3
+ IKF=37.638E-3
+ CJO=593.63E-15
+ M=.1
+ VJ=.68774
+ ISR=2.0646e-9
+ NR=4.9950
+ BV=113.60
+ IBV=10
+ TT=4.5000E-9
.ENDS
*
