*DEVICE=BAS16,D
* BAS16 D model
* created using Parts release 7.1 on 07/27/98 at 15:24
* Parts is a MicroSim product.
.MODEL BAS16 D
+ IS=6.0289E-9
+ N=2.1283
+ RS=1.0000E-3
+ IKF=37.638E-3
+ CJO=593.63E-15
+ M=.1
+ VJ=.68774
+ ISR=2.0646e-9
+ NR=4.9950
+ BV=113.60
+ IBV=10
+ TT=4.5000E-9
*$

