*DEVICE=BAS28,D
* BAS28 D model
* created using Parts release 6.2i on 07/22/97 at 13:29
* Parts is a MicroSim product.
.MODEL BAS28 D
+ IS=6.0289E-9
+ N=2.1283
+ RS=1.0000E-3
+ IKF=37.638E-3
+ CJO=593.63E-15
+ M=.1
+ VJ=.68774
+ ISR=2.0646E-9
+ NR=4.9950
+ BV=113.60
+ IBV=10
+ TT=4.5000E-9
*$

