*DEVICE=BAS516,D
* BAS516 D model
.MODEL BAS516 D
+ IS=2.9891E-9
+ N=1.9303
+ RS=0.78115
+ IKF=0.085491E-3
+ CJO=383.41E-15
+ M=.1
+ VJ=9.99
+ ISR=6.8038E-9
+ NR=4.9950
+ BV=130.38
+ IBV=10
+ TT=3.0297E-9
*$
