.SUBCKT BAS716 1 2
D1 1 2 BAS716
.MODEL BAS716 D
+ IS = 3.519E-15
+ N = 1.093
+ BV = 110
+ IBV = 3E-9
+ RS = 0.7423
+ CJO = 1.817E-12
+ VJ = 0.6508
+ M = 0.3689
+ FC = 0.5
+ TT = 8.656E-7
.ENDS
