*DEVICE=BAV199,D
* BAV199 D model
* created using Parts release 6.2i on 03/25/97 at 10:30
* Parts is a MicroSim product.
.MODEL BAV199 D
+ IS=805.84E-18
+ N=1.0246
+ RS=50.000E-3
+ IKF=362.16E-6
+ CJO=1.9002E-12
+ M=.35193
+ VJ=1.2722
+ ISR=298.95E-15
+ BV=113.30
+ IBV=10
+ TT=1.0230E-6
*$

