.SUBCKT BAW101S 1 2 3 4 5 6
*
* The Resistors do not reflect
* physical devices.  Instead they 
* improve modeling in the reverse
* mode of operation.
*
R1 1 6 1.2E+10 
D1 1 6 BAW101S
R2 4 3 1.2E+10 
D2 4 3 BAW101S
*
.MODEL BAW101S D 
+ IS = 7.219E-9 
+ N = 2 
+ BV = 310 
+ IBV = 0.0001 
+ RS = 0.63 
+ CJO = 4.584E-13 
+ VJ = 0.7483 
+ M = 0.06257 
+ FC = 0.5
+ TT = 2.1987E-8
.ENDS
