*DEVICE= BZV85-C33,D

.MODEL BZV85-C33 D
+ IS=110.88E-18
+ N=.92657
+ RS=.85899
+ IKF=149.75
+ CJO=16.677E-12
+ M=.34957
+ VJ=.66723
+ ISR=100.00E-12
+ BV=33.134
+ IBV=.37878
+ TT=2.2362E-6
*
