.SUBCKT BZX384-B56 1 2
D1 2 1 BZX384-B56
.MODEL BZX384-B56 D
+ IS = 1.13E-14
+ N = 1.103
+ BV = 56
+ IBV = 0.002
+ RS = 0.4798
+ CJO = 1.508E-11
+ VJ = 0.8856
+ M = 0.4177
+ FC = 0.5
.ENDS
