.SUBCKT BZX384-B16 1 2
D1 2 1 BZX384-B16
.MODEL BZX384-B16 D
+ IS = 1.13E-14
+ N = 1.103
+ BV = 16
+ IBV = 0.005
+ RS = 0.4798
+ CJO = 3.509E-11
+ VJ = 0.6502
+ M = 0.3378
+ FC = 0.5
.ENDS
