.SUBCKT BZX384-B62 1 2
D1 2 1 BZX384-B62
.MODEL BZX384-B62 D
+ IS = 1.13E-14
+ N = 1.103
+ BV = 62
+ IBV = 0.002
+ RS = 0.4798
+ CJO = 1.403E-11
+ VJ = 0.8053
+ M = 0.4033
+ FC = 0.5
.ENDS
