.SUBCKT BZX384-B75 1 2
D1 2 1 BZX384-B75
.MODEL BZX384-B75 D
+ IS = 1.13E-14
+ N = 1.103
+ BV = 75
+ IBV = 0.002
+ RS = 0.4798
+ CJO = 1.246E-11
+ VJ = 0.822
+ M = 0.4052
+ FC = 0.5
.ENDS
