.SUBCKT BZX384-B43 1 2
D1 2 1 BZX384-B43
.MODEL BZX384-B43 D
+ IS = 1.13E-14
+ N = 1.103
+ BV = 43
+ IBV = 0.002
+ RS = 0.4798
+ CJO = 1.638E-11
+ VJ = 0.7517
+ M = 0.3762
+ FC = 0.5
.ENDS
