.SUBCKT BZX384-B12 1 2
D1 2 1 BZX384-B12
.MODEL BZX384-B12 D
+ IS = 1.13E-14
+ N = 1.103
+ BV = 12
+ IBV = 0.005
+ RS = 0.4798
+ CJO = 4.928E-11
+ VJ = 0.575
+ M = 0.3292
+ FC = 0.5
.ENDS
