.SUBCKT BZX384-B2V7 1 2
D1 2 1 BZX384-B2V7
.MODEL BZX384-B2V7 D
+ IS = 1.033E-15
+ N = 1.001
+ BV = 2.7
+ IBV = 0.005
+ RS = 0.387
+ CJO = 3.518E-10
+ VJ = 0.6816
+ M = 0.3174
+ FC = 0.5
.ENDS
