.SUBCKT BZX384-B39 1 2
D1 2 1 BZX384-B39
.MODEL BZX384-B39 D
+ IS = 1.13E-14
+ N = 1.103
+ BV = 39
+ IBV = 0.002
+ RS = 0.4798
+ CJO = 1.772E-11
+ VJ = 0.7471
+ M = 0.3751
+ FC = 0.5
.ENDS
