.SUBCKT BZX384-B3V0 1 2
D1 2 1 BZX384-B3V0
.MODEL BZX384-B3V0 D
+ IS = 1.033E-15
+ N = 1.001
+ BV = 3
+ IBV = 0.005
+ RS = 0.387
+ CJO = 3.346E-10
+ VJ = 0.6722
+ M = 0.3162
+ FC = 0.5
.ENDS
