.SUBCKT BZX384-B18 1 2
D1 2 1 BZX384-B18
.MODEL BZX384-B18 D
+ IS = 1.13E-14
+ N = 1.103
+ BV = 18
+ IBV = 0.005
+ RS = 0.4798
+ CJO = 3.17E-11
+ VJ = 0.6421
+ M = 0.3327
+ FC = 0.5
.ENDS
