.SUBCKT BZX384-B27 1 2
D1 2 1 BZX384-B27
.MODEL BZX384-B27 D
+ IS = 1.13E-14
+ N = 1.103
+ BV = 27
+ IBV = 0.002
+ RS = 0.4798
+ CJO = 2.233E-11
+ VJ = 0.7107
+ M = 0.3546
+ FC = 0.5
.ENDS
