.SUBCKT BZX384-B7V5 1 2
D1 2 1 BZX384-B7V5
.MODEL BZX384-B7V5 D
+ IS = 1.13E-14
+ N = 1.103
+ BV = 7.5
+ IBV = 0.005
+ RS = 0.4798
+ CJO = 8.767E-11
+ VJ = 0.5829
+ M = 0.3299
+ FC = 0.5
.ENDS
