.SUBCKT BZX384-B4V3 1 2
D1 2 1 BZX384-B4V3
.MODEL BZX384-B4V3 D
+ IS = 1.033E-15
+ N = 1.001
+ BV = 4.3
+ IBV = 0.005
+ RS = 0.387
+ CJO = 2.715E-10
+ VJ = 0.7721
+ M = 0.3557
+ FC = 0.5
.ENDS
