.SUBCKT BZX384-B3V9 1 2
D1 2 1 BZX384-B3V9
.MODEL BZX384-B3V9 D
+ IS = 1.033E-15
+ N = 1.001
+ BV = 3.9
+ IBV = 0.005
+ RS = 0.387
+ CJO = 2.82E-10
+ VJ = 0.6743
+ M = 0.3219
+ FC = 0.5
.ENDS
