.SUBCKT BZX384-B13 1 2
D1 2 1 BZX384-B13
.MODEL BZX384-B13 D
+ IS = 1.13E-14
+ N = 1.103
+ BV = 13
+ IBV = 0.005
+ RS = 0.4798
+ CJO = 4.377E-11
+ VJ = 0.5656
+ M = 0.3289
+ FC = 0.5
.ENDS
