.SUBCKT BZX384-B5V6 1 2
D1 2 1 BZX384-B5V6
.MODEL BZX384-B5V6 D
+ IS = 1.033E-15
+ N = 1.001
+ BV = 5.6
+ IBV = 0.005
+ RS = 0.387
+ CJO = 1.961E-10
+ VJ = 0.9187
+ M = 0.423
+ FC = 0.5
.ENDS
