.SUBCKT BZX384-B3V6 1 2
D1 2 1 BZX384-B3V6
.MODEL BZX384-B3V6 D
+ IS = 1.033E-15
+ N = 1.001
+ BV = 3.6
+ IBV = 0.005
+ RS = 0.387
+ CJO = 3.062E-10
+ VJ = 0.6643
+ M = 0.3168
+ FC = 0.5
.ENDS
