.SUBCKT BZX384-B51 1 2
D1 2 1 BZX384-B51
.MODEL BZX384-B51 D
+ IS = 1.13E-14
+ N = 1.103
+ BV = 51
+ IBV = 0.002
+ RS = 0.4798
+ CJO = 1.602E-11
+ VJ = 0.8454
+ M = 0.4154
+ FC = 0.5
.ENDS
