.SUBCKT BZX384-B24 1 2
D1 2 1 BZX384-B24
.MODEL BZX384-B24 D
+ IS = 1.13E-14
+ N = 1.103
+ BV = 24
+ IBV = 0.002
+ RS = 0.4798
+ CJO = 2.48E-11
+ VJ = 0.7142
+ M = 0.3513
+ FC = 0.5
.ENDS
