.SUBCKT BZX384-B20 1 2
D1 2 1 BZX384-B20
.MODEL BZX384-B20 D
+ IS = 1.13E-14
+ N = 1.103
+ BV = 20
+ IBV = 0.005
+ RS = 0.4798
+ CJO = 2.915E-11
+ VJ = 0.635
+ M = 0.3362
+ FC = 0.5
.ENDS
