.MODEL BZX585-B36 D
+ IS = 1.13E-14
+ N = 1.103
+ BV = 36
+ IBV = 0.002
+ RS = 0.4798
+ CJO = 1.866E-11
+ VJ = 0.7591
+ M = 0.3771
+ FC = 0.5
