.MODEL BZX585-B68 D
+ IS = 1.13E-14
+ N = 1.103
+ BV = 68
+ IBV = 0.002
+ RS = 0.4798
+ CJO = 1.321E-11
+ VJ = 0.7877
+ M = 0.4021
+ FC = 0.5
