.MODEL BZX585-B8V2 D
+ IS = 1.13E-14
+ N = 1.103
+ BV = 8.2
+ IBV = 0.005
+ RS = 0.4798
+ CJO = 7.562E-11
+ VJ = 0.5765
+ M = 0.3298
+ FC = 0.5
