.MODEL BZX585-B5V1 D
+ IS = 1.033E-15
+ N = 1.001
+ BV = 5.1
+ IBV = 0.005
+ RS = 0.387
+ CJO = 2.402E-10
+ VJ = 0.7934
+ M = 0.3578
+ FC = 0.5
