.MODEL BZX585-B3V3 D
+ IS = 1.033E-15
+ N = 1.001
+ BV = 3.3
+ IBV = 0.005
+ RS = 0.387
+ CJO = 3.162E-10
+ VJ = 0.6687
+ M = 0.3164
+ FC = 0.5
