.MODEL BZX585-B9V1 D
+ IS = 1.13E-14
+ N = 1.103
+ BV = 9.1
+ IBV = 0.005
+ RS = 0.4798
+ CJO = 7.316E-11
+ VJ = 0.5667
+ M = 0.3295
+ FC = 0.5
