.MODEL BZX585-B3V0 D
+ IS = 1.033E-15
+ N = 1.001
+ BV = 3
+ IBV = 0.005
+ RS = 0.387
+ CJO = 3.346E-10
+ VJ = 0.6722
+ M = 0.3162
+ FC = 0.5
