.MODEL BZX585-B22 D
+ IS = 1.13E-14
+ N = 1.103
+ BV = 22
+ IBV = 0.005
+ RS = 0.4798
+ CJO = 2.701E-11
+ VJ = 0.7087
+ M = 0.3557
+ FC = 0.5
