.MODEL BZX585-B30 D
+ IS = 1.13E-14
+ N = 1.103
+ BV = 30
+ IBV = 0.002
+ RS = 0.4798
+ CJO = 2.17E-011
+ VJ = 0.6718
+ M = 0.3465
+ FC = 0.5
