.MODEL BZX585-B6V2 D
+ IS = 1.033E-15
+ N = 1.001
+ BV = 6.2
+ IBV = 0.005
+ RS = 0.387
+ CJO = 1.732E-10
+ VJ = 0.9334
+ M = 0.4321
+ FC = 0.5
