*DEVICE=BZX79C6V8,D
* BZX79C6V8 D model
* created using Parts release 6.2i on 02/21/97 at 11:02
* Parts is a MicroSim product.
.MODEL BZX79C6V8 D
+ IS=2.4710E-9
+ N=2.0880
+ RS=1.0000E-3
+ IKF=6.5100
+ CJO=95.650E-12
+ M=.3487
+ VJ=.7022
+ ISR=10.010E-21
+ BV=6.9480
+ IBV=.8623
+ TT=140E-9
*$

