*DEVICE=BZX84C43V,D

* BZX84C43V D model
* created using Parts release 7.1 on 03/31/98 at 09:29
* Parts is a MicroSim product.
.MODEL BZX84C43V D
+ IS=2.6665E-18
+ N=.82284
+ RS=.51617
+ IKF=11.760E-3
+ CJO=14.596E-12
+ M=.3553
+ VJ=.6878
+ ISR=69.202E-12
+ BV=43.128
+ IBV=.29071
+ TT=2.4670E-6
*$

