.MODEL BZX884-B75 D
+ IS = 5.229E-15
+ N = 1.061
+ BV = 75
+ IBV = 0.002
+ RS = 0.4467
+ CJO = 1.246E-11
+ VJ = 0.822
+ M = 0.4052
+ FC = 0.5
