*DEVICE=BZX84C30V,D

* BZX84C30V D model
* created using Parts release 7.1 on 03/31/98 at 09:19
* Parts is a MicroSim product.
.MODEL BZX84C30V D
+ IS=110.88E-18
+ N=.92657
+ RS=.85899
+ IKF=149.75
+ CJO=17.398E-12
+ M=.33936
+ VJ=.65046
+ ISR=47.874E-12
+ BV=30.138
+ IBV=.44378
+ TT=2.5247E-6
*$

