.MODEL BZX884-B18 D
+ IS = 5.229E-15
+ N = 1.061
+ BV = 18
+ IBV = 0.005
+ RS = 0.4467
+ CJO = 3.17E-11
+ VJ = 0.6421
+ M = 0.3327
+ FC = 0.5
