*DEVICE=BZX84C11V,D

* BZX84C11V D model
* created using Parts release 7.1 on 03/31/98 at 08:49
* Parts is a MicroSim product.
.MODEL BZX84C11V D
+ IS=2.6665E-18
+ N=.82284
+ RS=.51617
+ IKF=11.760E-3
+ CJO=38.612E-12
+ M=.32962
+ VJ=.58913
+ ISR=592.87E-12
+ BV=11.119
+ IBV=.54544
+ TT=3.2172E-6
*$

