.MODEL BZX884-B6V2 D
+ IS = 7.066E-16
+ N = 0.9643
+ BV = 6.2
+ IBV = 0.005
+ RS = 0.2544
+ CJO = 1.732E-10
+ VJ = 0.9334
+ M = 0.4321
+ FC = 0.5
