.MODEL BZX884-B47 D
+ IS = 5.229E-15
+ N = 1.061
+ BV = 47
+ IBV = 0.002
+ RS = 0.4467
+ CJO = 1.707E-11
+ VJ = 0.888
+ M = 0.4248
+ FC = 0.5
