.SUBCKT BZX84C75 1 2 3
D1 1 3 BZX84C75
.MODEL BZX84C75 D
+ IS = 9.794E-15
+ N = 1.101
+ BV = 75
+ IBV = 0.002
+ RS = 0.3363
+ CJO = 1.246E-11
+ VJ = 0.822
+ M = 0.4052
+ FC = 0.5
.ENDS
