.MODEL BZX884-B12 D
+ IS = 5.229E-15
+ N = 1.061
+ BV = 12
+ IBV = 0.005
+ RS = 0.4467
+ CJO = 4.928E-11
+ VJ = 0.575
+ M = 0.3292
+ FC = 0.5
