.MODEL BZX884-B6V8 D
+ IS = 7.066E-16
+ N = 0.9643
+ BV = 6.8
+ IBV = 0.005
+ RS = 0.2544
+ CJO = 1.519E-10
+ VJ = 0.9041
+ M = 0.4027
+ FC = 0.5
