.MODEL BZX884-B4V3 D
+ IS = 7.066E-16
+ N = 0.9643
+ BV = 4.3
+ IBV = 0.005
+ RS = 0.2544
+ CJO = 2.715E-10
+ VJ = 0.7721
+ M = 0.3557
+ FC = 0.5
