*DEVICE=BZX84C15V,D

* BZX84C15V D model
* created using Parts release 7.1 on 03/31/98 at 08:52
* Parts is a MicroSim product.
.MODEL BZX84C15V D
+ IS=2.6665E-18
+ N=.82284
+ RS=.51617
+ IKF=11.760E-3
+ CJO=28.508E-12
+ M=.33087
+ VJ=.64691
+ ISR=38.989E-12
+ BV=15.119
+ IBV=.54544
+ TT=2.9720E-6
*$

