.MODEL BZX884-B68 D
+ IS = 5.229E-15
+ N = 1.061
+ BV = 68
+ IBV = 0.002
+ RS = 0.4467
+ CJO = 1.321E-11
+ VJ = 0.7877
+ M = 0.4021
+ FC = 0.5
