.MODEL BZX884-B30 D
+ IS = 5.229E-15
+ N = 1.061
+ BV = 30
+ IBV = 0.002
+ RS = 0.4467
+ CJO = 2.17E-011
+ VJ = 0.6718
+ M = 0.3465
+ FC = 0.5
