.MODEL BZX884-B15 D
+ IS = 5.229E-15
+ N = 1.061
+ BV = 15
+ IBV = 0.005
+ RS = 0.4467
+ CJO = 4.023E-11
+ VJ = 0.6144
+ M = 0.3297
+ FC = 0.5
