.MODEL BZX884-B3V3 D
+ IS = 7.066E-16
+ N = 0.9643
+ BV = 3.3
+ IBV = 0.005
+ RS = 0.2544
+ CJO = 3.162E-10
+ VJ = 0.6687
+ M = 0.3164
+ FC = 0.5
