.MODEL BZX884-B16 D
+ IS = 5.229E-15
+ N = 1.061
+ BV = 16
+ IBV = 0.005
+ RS = 0.4467
+ CJO = 3.509E-11
+ VJ = 0.6502
+ M = 0.3378
+ FC = 0.5
