.MODEL BZX884-B22 D
+ IS = 5.229E-15
+ N = 1.061
+ BV = 22
+ IBV = 0.005
+ RS = 0.4467
+ CJO = 2.701E-11
+ VJ = 0.7087
+ M = 0.3557
+ FC = 0.5
