.MODEL BZX884-B3V9 D
+ IS = 7.066E-16
+ N = 0.9643
+ BV = 3.9
+ IBV = 0.005
+ RS = 0.2544
+ CJO = 2.82E-10
+ VJ = 0.6743
+ M = 0.3219
+ FC = 0.5
