*DEVICE=BZX84C3V0,D

* BZX84C3V0 D model
* created using Parts release 7.1 on 03/30/98 at 11:36
* Parts is a MicroSim product.
.MODEL BZX84C3V0 D
+ IS=2.6665E-18
+ N=.82284
+ RS=.51617
+ IKF=11.760E-3
+ CJO=336.44E-12
+ M=.32418
+ VJ=.73919
+ ISR=468.92E-9
+ BV=3.0638
+ IBV=65.080E-3
+ TT=10.676E-9
*$ 


