.MODEL BZX884-B43 D
+ IS = 5.229E-15
+ N = 1.061
+ BV = 43
+ IBV = 0.002
+ RS = 0.4467
+ CJO = 1.638E-11
+ VJ = 0.7517
+ M = 0.3762
+ FC = 0.5
