.MODEL BZX884-B2V7 D
+ IS = 7.066E-16
+ N = 0.9643
+ BV = 2.7
+ IBV = 0.005
+ RS = 0.2544
+ CJO = 3.518E-10
+ VJ = 0.6816
+ M = 0.3174
+ FC = 0.5
