*DEVICE=BZX84C51V,D

* BZX84C51V D model
* created using Parts release 7.1 on 03/31/98 at 09:33
* Parts is a MicroSim product.
.MODEL BZX84C51V D
+ IS=2.6665E-18
+ N=.82284
+ RS=.51617
+ IKF=11.760E-3
+ CJO=14.030E-12
+ M=.33875
+ VJ=.76575
+ ISR=60.382E-12
+ BV=51.120
+ IBV=.21741
+ TT=2.3083E-6
*$

