.MODEL BZX884-B8V2 D
+ IS = 5.229E-15
+ N = 1.061
+ BV = 8.2
+ IBV = 0.005
+ RS = 0.4467
+ CJO = 7.562E-11
+ VJ = 0.5765
+ M = 0.3298
+ FC = 0.5
