.MODEL BZX884-B2V4 D
+ IS = 7.066E-16
+ N = 0.9643
+ BV = 2.4
+ IBV = 0.005
+ RS = 0.2544
+ CJO = 3.615E-10
+ VJ = 0.5762
+ M = 0.2715
+ FC = 0.5
