*DEVICE=BZX84C8V2,D

* BZX84C8V2 D model
* created using Parts release 7.1 on 03/31/98 at 08:47
* Parts is a MicroSim product.
.MODEL BZX84C8V2 D
+ IS=110.88E-18
+ N=.92657
+ RS=.85899
+ IKF=149.75
+ CJO=54.185E-12
+ M=.33443
+ VJ=.66823
+ ISR=146.75E-12
+ BV=8.3329
+ IBV=1.0062
+ TT=2.7700E-6
*$

