*DEVICE=BZX84C5V6,D

* BZX84C5V6 D model
* created using Parts release 7.1 on 03/30/98 at 12:37
* Parts is a MicroSim product.
.MODEL BZX84C5V6 D
+ IS=2.6665E-18
+ N=.82284
+ RS=.51617
+ IKF=11.760E-3
+ CJO=137.10E-12
+ M=.34532
+ VJ=.72637
+ ISR=1.2666E-9
+ BV=5.7078
+ IBV=.35715
+ TT=78.483E-9
*$

