.MODEL BZX884-B7V5 D
+ IS = 5.229E-15
+ N = 1.061
+ BV = 7.5
+ IBV = 0.005
+ RS = 0.4467
+ CJO = 8.767E-11
+ VJ = 0.5829
+ M = 0.3299
+ FC = 0.5
