.MODEL BZX884-B20 D
+ IS = 5.229E-15
+ N = 1.061
+ BV = 20
+ IBV = 0.005
+ RS = 0.4467
+ CJO = 2.915E-11
+ VJ = 0.635
+ M = 0.3362
+ FC = 0.5
