.MODEL BZX884-B27 D
+ IS = 5.229E-15
+ N = 1.061
+ BV = 27
+ IBV = 0.002
+ RS = 0.4467
+ CJO = 2.233E-11
+ VJ = 0.7107
+ M = 0.3546
+ FC = 0.5
