.MODEL BZX884-B39 D
+ IS = 5.229E-15
+ N = 1.061
+ BV = 39
+ IBV = 0.002
+ RS = 0.4467
+ CJO = 1.772E-11
+ VJ = 0.7471
+ M = 0.3751
+ FC = 0.5
