*DEVICE=BZX84C7V5,D

* BZX84C7V5 D model
* created using Parts release 7.1 on 03/31/98 at 08:46
* Parts is a MicroSim product.
.MODEL BZX84C7V5 D
+ IS=2.6665E-18
+ N=.82284
+ RS=.51617
+ IKF=11.760E-3
+ CJO=63.513E-12
+ M=.33559
+ VJ=.66795
+ ISR=1.1222E-9
+ BV=7.6329
+ IBV=.94329
+ TT=2.7411E-6
*$


