.MODEL BZX884-B13 D
+ IS = 5.229E-15
+ N = 1.061
+ BV = 13
+ IBV = 0.005
+ RS = 0.4467
+ CJO = 4.377E-11
+ VJ = 0.5656
+ M = 0.3289
+ FC = 0.5
