.MODEL BZX884-B36 D
+ IS = 5.229E-15
+ N = 1.061
+ BV = 36
+ IBV = 0.002
+ RS = 0.4467
+ CJO = 1.866E-11
+ VJ = 0.7591
+ M = 0.3771
+ FC = 0.5
