.MODEL BZX884-B10 D
+ IS = 5.229E-15
+ N = 1.061
+ BV = 10
+ IBV = 0.005
+ RS = 0.4467
+ CJO = 6.004E-11
+ VJ = 0.6305
+ M = 0.3302
+ FC = 0.5
