.MODEL BZX884-B3V0 D
+ IS = 7.066E-16
+ N = 0.9643
+ BV = 3
+ IBV = 0.005
+ RS = 0.2544
+ CJO = 3.346E-10
+ VJ = 0.6722
+ M = 0.3162
+ FC = 0.5
