*DEVICE=BZX84C2V4,D

* BZX84C2V4 D model
* created using Parts release 7.1 on 03/30/98 at 11:17
* Parts is a MicroSim product.
.MODEL BZX84C2V4 D
+ IS=2.6665E-18
+ N=.82284
+ RS=.51617
+ IKF=11.760E-3
+ CJO=243.19E-12
+ M=.28964
+ VJ=.58074
+ ISR=4.7427E-6
+ BV=2.4673
+ IBV=74.447E-3
+ TT=29.431E-9
*$

