*DEVICE=BZX84C24V,D

* BZX84C24V D model
* created using Parts release 7.1 on 03/31/98 at 09:07
* Parts is a MicroSim product.
.MODEL BZX84C24V D
+ IS=2.6665E-18
+ N=.82284
+ RS=.51617
+ IKF=11.760E-3
+ CJO=24.790E-12
+ M=.33892
+ VJ=.67825
+ ISR=42.591E-12
+ BV=24.094
+ IBV=.21128
+ TT=882.93E-9
*$

