.SUBCKT BZX84C4V3 1 2 3
D1 1 3 BZX84C4V3
.MODEL BZX84C4V3 D
+ IS = 7.035E-16
+ N = 0.9809
+ BV = 4.3
+ IBV = 0.005
+ RS = 0.3487
+ CJO = 2.715E-10
+ VJ = 0.7721
+ M = 0.3557
+ FC = 0.5
.ENDS
