*DEVICE=BZX84C10V,D

* BZX84C10V D model
* created using Parts release 7.1 on 03/31/98 at 08:48
* Parts is a MicroSim product.
.MODEL BZX84C10V D
+ IS=110.88E-18
+ N=.92657
+ RS=.85899
+ IKF=149.75
+ CJO=57.292E-12
+ M=.33236
+ VJ=.67995
+ ISR=49.142E-12
+ BV=10.124
+ IBV=.72438
+ TT=973.82E-9
*$


