*DEVICE=BZX84C12V,D

* BZX84C12V D model
* created using Parts release 7.1 on 03/31/98 at 08:50
* Parts is a MicroSim product.
.MODEL BZX84C12V D
+ IS=2.6665E-18
+ N=.82284
+ RS=.51617
+ IKF=11.760E-3
+ CJO=48.079E-12
+ M=.32805
+ VJ=.62172
+ ISR=47.692E-12
+ BV=12.119
+ IBV=.54544
+ TT=825.22E-9
*$

