.MODEL BZX884-B5V1 D
+ IS = 7.066E-16
+ N = 0.9643
+ BV = 5.1
+ IBV = 0.005
+ RS = 0.2544
+ CJO = 2.402E-10
+ VJ = 0.7934
+ M = 0.3578
+ FC = 0.5
