.MODEL BZX884-B33 D
+ IS = 5.229E-15
+ N = 1.061
+ BV = 33
+ IBV = 0.002
+ RS = 0.4467
+ CJO = 2.019E-11
+ VJ = 0.7645
+ M = 0.3782
+ FC = 0.5
