.MODEL BZX884-B9V1 D
+ IS = 5.229E-15
+ N = 1.061
+ BV = 9.1
+ IBV = 0.005
+ RS = 0.4467
+ CJO = 7.316E-11
+ VJ = 0.5667
+ M = 0.3295
+ FC = 0.5
