.MODEL BZX884-B62 D
+ IS = 5.229E-15
+ N = 1.061
+ BV = 62
+ IBV = 0.002
+ RS = 0.4467
+ CJO = 1.403E-11
+ VJ = 0.8053
+ M = 0.4033
+ FC = 0.5
