.MODEL BZX884-B3V6 D
+ IS = 7.066E-16
+ N = 0.9643
+ BV = 3.6
+ IBV = 0.005
+ RS = 0.2544
+ CJO = 3.062E-10
+ VJ = 0.6643
+ M = 0.3168
+ FC = 0.5
