*
.MODEL PDZ10B D
+ IS = 9.794E-15
+ N = 1.101
+ BV = 10
+ IBV = 0.005
+ RS = 0.3363
+ CJO = 6.004E-11
+ VJ = 0.6305
+ M = 0.3302
+ FC = 0.5
*
