*
.MODEL PDZ11B D
+ IS = 9.794E-15
+ N = 1.101
+ BV = 11
+ IBV = 0.005
+ RS = 0.3363
+ CJO = 5.404E-11
+ VJ = 0.5891
+ M = 0.3295
+ FC = 0.5
*
