*
.MODEL PDZ5.6B D
+ IS = 1.777E-15
+ N = 1.015
+ BV = 5.6
+ IBV = 0.00025
+ RS = 0.3502
+ CJO = 1.298E-10
+ VJ = 0.6612
+ M = 0.3228
+ FC = 0.5
*
