*
.MODEL PDZ9.1B D
+ IS = 9.794E-15
+ N = 1.101
+ BV = 9.1
+ IBV = 0.005
+ RS = 0.3363
+ CJO = 7.316E-11
+ VJ = 0.5667
+ M = 0.3295
+ FC = 0.5
*
