*
.SUBCKT PESD15VS2UQ 1 2 3
*
D1 3 1 PESD15VS2UQ
D2 3 2 PESD15VS2UQ
*
.MODEL PESD15VS2UQ D
+ IS = 9.794E-15
+ N = 1.101
+ BV = 18
+ IBV = 0.005
+ RS = 0.3363
+ CJO = 3.17E-11
+ VJ = 0.6421
+ M = 0.3327
+ FC = 0.5
.ENDS
*
