* 
.SUBCKT PESD24VL2BT 1 2 3
*
D1 11 1 PESD24VL2BT
D2 11 3 PESD24VL2BT
D3 12 2 PESD24VL2BT
D4 12 3 PESD24VL2BT
*
.MODEL PESD24VL2BT D
+ IS = 9.794E-15
+ N = 1.101 
+ BV = 27
+ IBV = 0.002
+ RS = 0.3363
+ CJO = 2.233E-11
+ VJ = 0.7107
+ M = 0.3546
+ FC = 0.5
.ENDS
*
