.SUBCKT PESD5V0S2UAT 1 2 3
D1 1 3 PESD5V0S2UAT
D2 2 3 PESD5V0S2UAT
.MODEL PESD5V0S2UAT D
+ IS = 7.035E-16
+ N = 0.9809
+ BV = 6.8
+ IBV = 0.005
+ RS = 0.3487
+ CJO = 1.519E-10
+ VJ = 0.9041
+ M = 0.4027
+ FC = 0.5
.ENDS
