*
.SUBCKT PESD15VS2UT 1 2 3
*
D1 3 1 PESD15VS2UT
D2 3 2 PESD15VS2UT
*
.MODEL PESD15VS2UT D 
+ IS = 9.794E-015
+ N = 1.101
+ BV = 18
+ IBV = 0.005
+ RS = 0.3363
+ CJO = 3.17E-011
+ VJ = 0.6421
+ M = 0.3327
+ FC = 0.5
.ENDS
*
