*
.SUBCKT PESD12VL2BT 1 2 3
*
D1 11 1 PESD12VL2BT
D2 11 3 PESD12VL2BT
D3 12 2 PESD12VL2BT
D4 12 3 PESD12VL2BT
*
.MODEL PESD12VL2BT D
+ IS = 9.794E-15
+ N = 1.101
+ BV = 15
+ IBV = 0.005
+ RS = 0.3363
+ CJO = 4.023E-11
+ VJ = 0.6144
+ M = 0.3297
+ FC = 0.5
.ENDS
*
