* 
.SUBCKT PESD1LIN 1 2
*
D1 11 1 D15V
D2 11 2 D24V
*
.MODEL D15V D
+ IS = 9.794E-15
+ N = 1.101
+ BV = 18
+ IBV = 0.005
+ RS = 0.3363
+ CJO = 3.17E-11
+ VJ = 0.6421
+ M = 0.3327
+ FC = 0.5
*
.MODEL D24V D
+ IS = 9.794E-15
+ N = 1.101 
+ BV = 27
+ IBV = 0.002
+ RS = 0.3363
+ CJO = 2.233E-11
+ VJ = 0.7107
+ M = 0.3546
+ FC = 0.5
.ENDS
*
