* 
.SUBCKT PESD1CAN 1 2 3
*
D1 11 1 PESD1CAN
D2 11 3 PESD1CAN
D3 12 2 PESD1CAN
D4 12 3 PESD1CAN
*
.MODEL PESD1CAN D
+ IS = 9.794E-15
+ N = 1.101 
+ BV = 27
+ IBV = 0.002
+ RS = 0.3363
+ CJO = 2.233E-11
+ VJ = 0.7107
+ M = 0.3546
+ FC = 0.5
.ENDS
*
