.SUBCKT PESD5V0L2UM 1 2 3
*
D1 3 1 PESD5V0L2UM
D2 3 2 PESD5V0L2UM
*
.MODEL PESD5V0L2UM D 
+ IS = 3.644E-17 
+ N = 0.9717 
+ BV = 6.8 
+ IBV = 0.001 
+ RS = 0.5003 
+ CJO = 1.641E-11 
+ VJ = 0.8979 
+ M = 0.33 
+ FC = 0.5 
.ENDS
