*
.SUBCKT PESD5V2S2UT 1 2 3
*
D1 3 1 PESD5V2S2UT
D2 3 2 PESD5V2S2UT
*
.MODEL PESD5V2S2UT D 
+ IS = 7.035E-16
+ N = 0.9809
+ BV = 6.8
+ IBV = 0.005
+ RS = 0.3487
+ CJO = 1.519E-10
+ VJ = 0.9041
+ M = 0.4027
+ FC = 0.5
.ENDS
*
