*
.MODEL PESD12VS1UB D
+ IS = 1.13E-14
+ N = 1.103
+ BV = 15
+ IBV = 0.005
+ RS = 0.4798
+ CJO = 4.023E-11
+ VJ = 0.6144
+ M = 0.3297
+ FC = 0.5
*
