*
.SUBCKT PESD24VS2UT 1 2 3
*
D1 3 1 PESD24VS2UT
D2 3 2 PESD24VS2UT
*
.MODEL PESD24VS2UT D
+ IS = 9.794E-015 
+ N = 1.101
+ BV = 27
+ IBV = 0.005
+ RS = 0.3363
+ CJO = 2.233E-011
+ VJ = 0.7107
+ M = 0.3546
+ FC = 0.5
.ENDS
*
