* 
.SUBCKT PESD15VL1BA 1 2
*
D1 11 1 PESD15VL1BA
D2 11 2 PESD15VL1BA
*
.MODEL PESD15VL1BA D
+ IS = 9.794E-15
+ N = 1.101
+ BV = 18
+ IBV = 0.005
+ RS = 0.3363
+ CJO = 3.17E-11
+ VJ = 0.6421
+ M = 0.3327
+ FC = 0.5
.ENDS
*
