.SUBCKT PESD12VS2UAT 1 2 3
D1 1 3 PESD12VS2UAT
D2 2 3 PESD12VS2UAT
.MODEL PESD12VS2UAT D
+ IS = 9.794E-15
+ N = 1.101
+ BV = 15
+ IBV = 0.005
+ RS = 0.3363
+ CJO = 4.023E-11
+ VJ = 0.6144
+ M = 0.3297
+ FC = 0.5
.ENDS
