* 
.SUBCKT PESD3V3L2BT 1 2 3
*
D1 11 1 PESD3V3L2BT
D2 11 3 PESD3V3L2BT
D3 12 2 PESD3V3L2BT
D4 12 3 PESD3V3L2BT

*
*.MODEL PESD3V3L2BT D
+ IS = 7.035E-16
+ N = 0.9809
+ BV = 5.6
+ IBV = 0.005
+ RS = 0.3487
+ CJO = 1.961E-10
+ VJ = 0.9187
+ M = 0.423
+ FC = 0.5
.ENDS
*
