*
.SUBCKT PESD24VU1UT 1 2 3
*
D1 3 2 DIODE 
D2 3 1 ZENER24V
*
.MODEL DIODE D
+ IS=6.0289E-9
+ N=2.1283
+ RS=1.0000E-3
+ IKF=37.638E-3
+ CJO=593.63E-15
+ M=.1
+ VJ=.68774
+ ISR=2.0646e-9
+ NR=4.9950
+ BV=113.60
+ IBV=10
+ TT=4.5000E-9

.MODEL ZENER24V D
+ IS = 9.794E-15
+ N = 1.101
+ BV = 24
+ IBV = 0.005
+ RS = 0.3363
+ CJO = 2.48E-11
+ VJ = 0.7142
+ M = 0.3513
+ FC = 0.5
.ENDS
*
