* 
.SUBCKT PESD15VL2BT 1 2 3
*
D1 11 1 PESD15VL2BT
D2 11 3 PESD15VL2BT
D3 12 2 PESD15VL2BT
D4 12 3 PESD15VL2BT
*
.MODEL PESD15VL2BT D
+ IS = 9.794E-15
+ N = 1.101
+ BV = 18
+ IBV = 0.005
+ RS = 0.3363
+ CJO = 3.17E-11
+ VJ = 0.6421
+ M = 0.3327
+ FC = 0.5
.ENDS
*
