Version 4
SHEET 1 1540 680
WIRE -48 -304 -48 -352
WIRE -112 -288 -256 -288
WIRE -64 -288 -112 -288
WIRE 32 -288 -16 -288
WIRE 64 -288 32 -288
WIRE -48 -240 -48 -304
WIRE -112 -224 -256 -224
WIRE -64 -224 -112 -224
WIRE 32 -224 -16 -224
WIRE 64 -224 32 -224
WIRE -48 -176 -48 -240
WIRE -112 -160 -256 -160
WIRE -64 -160 -112 -160
WIRE 32 -160 -16 -160
WIRE 64 -160 32 -160
WIRE -112 -80 -240 -80
WIRE -64 -80 -112 -80
WIRE 208 16 208 -16
WIRE -32 64 -64 64
WIRE 32 64 -32 64
WIRE 448 80 448 32
WIRE -32 96 -64 96
WIRE 32 96 -32 96
WIRE 432 96 384 96
WIRE 560 96 480 96
WIRE -32 128 -64 128
WIRE 32 128 -32 128
WIRE 208 192 208 16
WIRE -32 240 -64 240
WIRE 32 240 -32 240
WIRE 560 240 560 96
WIRE 656 240 560 240
WIRE 448 256 448 80
WIRE -32 272 -64 272
WIRE 32 272 -32 272
WIRE 432 272 384 272
WIRE 656 272 480 272
WIRE 1040 272 1008 272
WIRE 1232 272 1088 272
WIRE -32 304 -64 304
WIRE 32 304 -32 304
WIRE 656 304 560 304
WIRE 656 336 624 336
WIRE 208 352 208 192
WIRE -32 400 -64 400
WIRE 32 400 -32 400
WIRE 448 416 448 256
WIRE -32 432 -64 432
WIRE 32 432 -32 432
WIRE 432 432 384 432
WIRE 560 432 560 304
WIRE 560 432 480 432
WIRE -32 464 -64 464
WIRE 32 464 -32 464
WIRE 208 512 208 352
WIRE -32 560 -64 560
WIRE 32 560 -32 560
WIRE 448 576 448 416
WIRE -32 592 -64 592
WIRE 32 592 -32 592
WIRE 432 592 384 592
WIRE 624 592 624 336
WIRE 624 592 480 592
WIRE -32 624 -64 624
WIRE 32 624 -32 624
FLAG 448 32 VDD
FLAG 208 -16 VDD
FLAG 832 192 VDD
FLAG 1056 256 VDD
FLAG -48 -352 VDD
FLAG 32 -288 Ai
FLAG 32 -224 Bi
FLAG 32 -160 Ci
FLAG -112 -288 A
FLAG -112 -224 B
FLAG -112 -160 C
FLAG -32 64 A
FLAG -32 96 Bi
FLAG -32 128 Ci
FLAG -32 240 Ai
FLAG -32 272 B
FLAG -32 304 Ci
FLAG -32 400 Ai
FLAG -32 432 Bi
FLAG -32 464 C
FLAG -32 560 A
FLAG -32 592 B
FLAG -32 624 C
FLAG -112 -80 VDD
FLAG 1232 272 Out
IOPIN 1232 272 Out
FLAG -240 -80 VDD
IOPIN -240 -80 In
FLAG -256 -288 A
IOPIN -256 -288 In
FLAG -256 -224 B
IOPIN -256 -224 In
FLAG -256 -160 C
IOPIN -256 -160 In
SYMBOL Ideal_NAND_3 -16 112 R0
SYMATTR InstName X1
SYMBOL Ideal_NAND_3 -16 288 R0
SYMATTR InstName X2
SYMBOL Ideal_NAND_3 -16 448 R0
SYMATTR InstName X3
SYMBOL Ideal_NAND_3 -16 608 R0
SYMATTR InstName X4
SYMBOL inverter 432 96 R0
SYMATTR InstName X5
SYMBOL inverter 432 272 R0
SYMATTR InstName X6
SYMBOL inverter 432 432 R0
SYMATTR InstName X7
SYMBOL inverter 432 592 R0
SYMATTR InstName X8
SYMBOL Ideal_NOR_4 608 288 R0
SYMATTR InstName X9
SYMBOL inverter 1040 272 R0
SYMATTR InstName X10
SYMBOL inverter -64 -288 R0
SYMATTR InstName X11
SYMBOL inverter -64 -224 R0
SYMATTR InstName X12
SYMBOL inverter -64 -160 R0
SYMATTR InstName X13
