Version 4
SHEET 1 2692 1048
WIRE 224 144 160 144
WIRE 352 144 288 144
FLAG 160 144 X
FLAG 352 144 Y
SYMBOL FerriteBead2 256 144 M90
WINDOW 0 -9 0 VBottom 0
SYMATTR InstName WishWidget
SYMATTR Prefix X
SYMATTR SpiceModel XY
TEXT 176 -24 Center 0 ;New Year's Wish Generating Circuit
TEXT 184 56 Center 0 ;Plot v(y) as a function of v(x) (right click on the x-axis)\nand receive a New Year's wish -- analogspiceman :)
TEXT -208 224 Left 0 !.subckt XY 1 2\nV1 1 3 sin(0 .2 5k)\nVx 3 0 pwl(8m 1 12m 5 20m 5 26m32 7 29m490  8  29m491  6  31m490  8\n+  34m650  9  40m650  9  42m650 11  44m060 12  45m060 12  46m480 11\n+  48m480  9  48m481  9  48m482 13  54m482 13  56m482 15  57m892 16\n+  58m892 16  60m312 15  62m313 13  62m314 13  62m315 18  68m924 18\n+  68m925 16  72m524 18  72m525 20  75m524 18  75m525 18  75m526 21\n+  83m525 21  92m465 25 100m466 25 100m467 26 100m468 29 103m468 26\n+ 109m468 26 112m468 29 112m469 26 112m470 26 114m468 28 114m469 26\n+ 114m470 26 114m471 30 120m471 30 124m081 32 128m681 34 134m682 34\n+ 134m683 37 138m682 37 143m682 34 143m683 37 148m682 40 148m683 37\n+ 148m684 37 148m685 42 151m744 39 157m744 39 160m744 42 160m745 39\n+ 160m746 39 162m744 41 162m745 39 162m746 39 162m747 42 169m067 44\n+ 172m237 45 172m238 43 174m237 45 177m397 46 183m397 46 185m397 48\n+ 186m807 49 187m807 49 189m227 48 192m396 49 192m397 48 194m397 46)\nV2 2 4 sin(0 .2 5k 0 0 90)\nVy 4 0 pwl(0 0 8m 8 8m001 4 12m 4 12m001 8 20m 0 26m32 6  29m490  3\n+  31m490  3  34m650  0  40m650  6  42m650  6  44m060  5  45m060  4\n+  46m480  3  48m480  3  48m481  0  54m482  6  56m482  6  57m892  5\n+  58m892  4  60m312  3  62m313  3  62m314  0  65m314  0  68m924  3\n+  68m925  6  72m524  3  72m525  6  75m524  3  75m525  0  83m525  8\n+  92m465  0 100m465  8 100m466  0 103m468  0 109m468  6 112m469  6\n+ 112m470  3 114m469  3 114m470  0 114m471  0 114m472  6 120m471  0\n+ 124m081  3 128m681  0 134m681  6 134m682  0 134m683  0 138m682  4\n+ 143m682  8 143m683  4 148m682  8 148m683  4 148m684  0 151m744  0\n+ 157m744  6 160m745  6 160m746  3 162m745  3 162m746  0 162m747  0\n+ 169m067  6 172m237  3 174m237  3 177m397  0 183m397  6 185m397  6\n+ 186m807  5 187m807  4 189m227  3 192m396  0 192m397  3 194m397  3)\n.ends XY
TEXT -80 144 Left 0 !.tran 194m4
LINE Normal -72 16 -72 0
LINE Normal 456 16 -72 16
LINE Normal 456 -32 456 16
LINE Normal 440 -32 456 -32
RECTANGLE Normal 512 192 -136 -80
RECTANGLE Normal 440 0 -88 -48
