Version 4
SHEET 1 1180 680
WIRE 784 192 752 192
WIRE 896 192 864 192
WIRE 560 224 560 208
WIRE 528 240 416 240
WIRE 416 256 416 240
WIRE 656 256 592 256
WIRE 128 272 128 256
WIRE 224 272 224 256
WIRE 528 272 512 272
WIRE 560 304 560 288
WIRE 832 304 832 288
WIRE 752 320 752 192
WIRE 800 320 752 320
WIRE 896 336 896 192
WIRE 896 336 864 336
WIRE 416 352 416 336
WIRE 800 352 784 352
WIRE 128 368 128 352
WIRE 224 368 224 352
WIRE 832 384 832 368
FLAG 416 352 0
FLAG 896 192 X
FLAG 752 192 Y
FLAG 656 256 Z
FLAG 560 208 +V
FLAG 560 304 -V
FLAG 512 272 0
FLAG 224 368 0
FLAG 128 368 0
FLAG 128 256 +V
FLAG 224 256 -V
FLAG 832 288 +V
FLAG 832 384 -V
FLAG 784 352 0
SYMBOL voltage 416 240 R0
WINDOW 0 25 20 Left 0
WINDOW 3 24 100 Left 0
SYMATTR InstName V1
SYMATTR Value ac 1
SYMBOL voltage 880 192 R90
WINDOW 0 -32 56 VBottom 0
WINDOW 3 32 56 VTop 0
SYMATTR InstName V2
SYMATTR Value ac 1
SYMBOL voltage 128 256 R0
SYMATTR InstName V3
SYMATTR Value 15
SYMBOL voltage 224 256 R0
SYMATTR InstName V4
SYMATTR Value -15
SYMBOL LT1001_Boyle 560 192 R0
SYMATTR InstName U1
SYMBOL LT1001_Boyle 832 272 R0
SYMATTR InstName U2
TEXT 464 408 Left 0 !.ac oct 10 1m 100Meg
TEXT 64 432 Left 0 ;Offsets: 15u / 13.9864
