Version 4
SHEET 1 1512 680
WIRE 32 48 0 48
WIRE 240 48 96 48
WIRE 704 48 240 48
WIRE 704 64 704 48
WIRE 0 128 0 48
WIRE 48 128 0 128
WIRE 208 128 112 128
WIRE 240 128 240 48
WIRE 320 128 240 128
WIRE 416 128 384 128
WIRE 528 128 496 128
WIRE 656 128 528 128
WIRE 0 144 0 128
WIRE 672 160 624 160
WIRE 704 160 704 128
WIRE 704 160 672 160
WIRE 528 192 528 128
WIRE 624 192 624 160
WIRE 704 192 704 160
WIRE 240 208 240 128
WIRE 272 208 240 208
WIRE 384 208 384 176
WIRE 384 208 352 208
WIRE 0 240 0 224
WIRE 48 240 0 240
WIRE 240 240 240 208
WIRE 240 240 112 240
WIRE 384 240 384 208
WIRE 208 272 208 128
WIRE 240 272 208 272
WIRE 240 288 240 272
WIRE 0 320 0 240
WIRE 32 320 0 320
WIRE 208 320 208 272
WIRE 208 320 96 320
WIRE 384 320 384 304
WIRE 384 320 208 320
WIRE 528 320 528 272
WIRE 528 320 384 320
WIRE 624 320 624 272
WIRE 624 320 528 320
WIRE 704 320 704 272
WIRE 704 320 624 320
FLAG 240 288 0
FLAG 672 160 bat
SYMBOL voltage 0 128 R0
WINDOW 123 0 0 Left 0
WINDOW 39 0 0 Left 0
WINDOW 0 -17 62 Left 0
WINDOW 3 30 32 Left 0
SYMATTR InstName Vg
SYMATTR Value SINE(0 10 1000)
SYMBOL diode 32 64 R270
WINDOW 0 15 -9 VTop 0
WINDOW 3 43 91 VBottom 0
SYMATTR InstName D1
SYMATTR Value MR760
SYMBOL diode 112 144 M270
WINDOW 0 17 68 VTop 0
WINDOW 3 44 -26 VBottom 0
SYMATTR InstName D2
SYMATTR Value MR760
SYMBOL diode 48 256 R270
WINDOW 0 16 -3 VTop 0
WINDOW 3 44 85 VBottom 0
SYMATTR InstName D3
SYMATTR Value MR760
SYMBOL diode 96 336 M270
WINDOW 0 15 69 VTop 0
WINDOW 3 44 -28 VBottom 0
SYMATTR InstName D4
SYMATTR Value MR760
SYMBOL Robertugo\\Thyr_All 320 144 R270
WINDOW 0 29 -13 VRight 0
WINDOW 38 -20 -34 VRight 0
SYMATTR InstName U1
SYMATTR SpiceModel T106F1
SYMBOL zener 400 304 R180
WINDOW 0 -42 32 Left 0
WINDOW 3 -82 4 Left 0
SYMATTR InstName D5
SYMATTR Value 1N757
SYMBOL res 512 112 R90
WINDOW 0 16 106 VBottom 0
WINDOW 3 -11 5 VTop 0
SYMATTR InstName R1
SYMATTR Value 47
SYMBOL res 368 192 R90
WINDOW 0 16 107 VBottom 0
WINDOW 3 -13 13 VTop 0
SYMATTR InstName R2
SYMATTR Value 220
SYMBOL res 512 176 R0
WINDOW 0 32 48 Left 0
WINDOW 3 29 84 Left 0
SYMATTR InstName R3
SYMATTR Value 2k2
SYMBOL Robertugo\\Thyr_All 688 64 R0
WINDOW 0 -13 18 Right 0
WINDOW 38 -15 49 Right 0
SYMATTR InstName U2
SYMATTR SpiceModel S6006LS2
SYMBOL Misc\\battery 704 176 R0
WINDOW 0 -62 103 Left 0
WINDOW 3 -620 164 Left 0
SYMATTR InstName Vbat
SYMATTR Value PWL(0 5.5 9m9 5.5 10m 6 19m9 6 20m 6.5 29m9 6.5 30m 7)
SYMBOL res 608 176 R0
WINDOW 0 31 47 Left 0
SYMATTR InstName RL
SYMATTR Value 4
TEXT 600 32 Left 0 !.tran 40m
