Version 4
SHEET 1 4432 680
WIRE 1440 -304 1152 -304
WIRE 1440 -288 1440 -304
WIRE 1152 -256 1152 -304
WIRE 1440 -128 1440 -208
WIRE 1472 -128 1440 -128
WIRE 1584 -128 1552 -128
WIRE 1792 -128 1680 -128
WIRE 1584 -96 1520 -96
WIRE 1728 -96 1680 -96
WIRE 1440 -80 1440 -128
WIRE 1440 -80 1408 -80
WIRE 1728 -48 1728 -96
WIRE 1520 -32 1520 -96
WIRE 1440 48 1440 -80
WIRE 1440 48 1408 48
WIRE 752 96 720 96
WIRE 896 96 880 96
WIRE 1040 96 1024 96
WIRE 1184 96 1104 96
WIRE 1264 96 1184 96
WIRE 1344 96 1264 96
WIRE 720 112 720 96
WIRE 1184 144 1184 96
WIRE 1440 144 1408 144
WIRE 1440 176 1440 144
WIRE 1552 176 1440 176
WIRE 1264 192 1264 96
WIRE 1184 256 1184 208
WIRE 1440 304 1440 256
FLAG 1440 304 0
FLAG 1152 -176 0
FLAG 1520 -32 0
FLAG 1552 176 Out
FLAG 1264 272 0
FLAG 1264 -80 0
FLAG 1184 256 0
FLAG 720 192 0
FLAG 1728 -48 0
SYMBOL res 1248 176 R0
SYMATTR InstName R1
SYMATTR Value 1k
SYMBOL res 1424 -304 R0
SYMATTR InstName R2
SYMATTR Value 13k
SYMBOL voltage 1152 -272 R0
WINDOW 123 0 0 Left 2
WINDOW 39 0 0 Left 2
SYMATTR InstName V1
SYMATTR Value 70
SYMBOL 2N2369A_Avalanche 1376 96 R0
SYMATTR InstName X1
SYMBOL tline 1632 -112 R0
SYMATTR InstName T1
SYMATTR Value Td=5n Z0=50
SYMBOL res 1424 160 R0
SYMATTR InstName R7
SYMATTR Value 50
SYMBOL ind 1456 -112 R270
WINDOW 0 32 56 VTop 2
WINDOW 3 5 56 VBottom 2
SYMATTR InstName L1
SYMATTR Value 2n
SYMBOL res 1360 -96 R90
WINDOW 0 0 56 VBottom 2
WINDOW 3 32 56 VTop 2
SYMATTR InstName R3
SYMATTR Value 50
SYMBOL cap 1408 -96 R90
WINDOW 0 0 32 VBottom 2
WINDOW 3 32 32 VTop 2
SYMATTR InstName C1
SYMATTR Value 10p
SYMBOL diode 1200 208 R180
WINDOW 0 24 64 Left 2
WINDOW 3 24 0 Left 2
SYMATTR InstName D1
SYMATTR Value 1n5711
SYMBOL cap 1104 80 R90
WINDOW 0 0 32 VBottom 2
WINDOW 3 32 32 VTop 2
SYMATTR InstName C2
SYMATTR Value 5p
SYMATTR SpiceLine Lser=1n
SYMBOL voltage 720 96 R0
WINDOW 123 0 0 Left 2
WINDOW 39 24 124 Left 2
WINDOW 3 -30 166 Left 2
SYMATTR SpiceLine Rser=150
SYMATTR Value PULSE(0 3 1u 3n 3n {t} 10u)
SYMATTR InstName V2
SYMBOL FerriteBead2 784 96 R90
WINDOW 0 -9 0 VBottom 2
SYMATTR InstName L2
SYMATTR Value 53n
SYMATTR SpiceLine Ipk=0.4 Rser=0.15 Rpar=68 Cpar=190f mfg="Wurth Elektronik" pn="742 792 061"
SYMBOL FerriteBead2 848 96 R90
WINDOW 0 -9 0 VBottom 2
SYMATTR InstName L3
SYMATTR Value 53n
SYMATTR SpiceLine Ipk=0.4 Rser=0.15 Rpar=68 Cpar=190f mfg="Wurth Elektronik" pn="742 792 061"
SYMBOL FerriteBead2 928 96 R90
WINDOW 0 -9 0 VBottom 2
SYMATTR InstName L4
SYMATTR Value 53n
SYMATTR SpiceLine Ipk=0.4 Rser=0.15 Rpar=68 Cpar=190f mfg="Wurth Elektronik" pn="742 792 061"
SYMBOL FerriteBead2 992 96 R90
WINDOW 0 -9 0 VBottom 2
SYMATTR InstName L5
SYMATTR Value 53n
SYMATTR SpiceLine Ipk=0.4 Rser=0.15 Rpar=68 Cpar=190f mfg="Wurth Elektronik" pn="742 792 061"
TEXT 936 352 Left 2 !.tran 0 25u 0.1n uic
TEXT 936 400 Left 4 !.options reltol=0.001m
TEXT 1312 208 Left 4 ;*
TEXT 1504 32 Left 2 !.MODEL 1N5711 D (IS=19.7n N=1.51 BV=93.3  IBV=50n\n+ RS=6.27 CJO=1.8p  VJ=.75 M=.333 XTI=2 EG=.69 TT=10.8p)
TEXT 840 296 Left 2 !.step param t list 20n 50n
