Version 4
SHEET 1 4432 680
WIRE 1264 -128 1152 -128
WIRE 1440 -128 1328 -128
WIRE 1152 -80 1152 -128
WIRE 1440 48 1440 -128
WIRE 1440 48 1408 48
WIRE 1344 96 1264 96
WIRE 1264 144 1264 96
WIRE 1440 144 1408 144
WIRE 1264 272 1264 224
WIRE 1440 272 1440 144
WIRE 1440 272 1264 272
WIRE 1440 304 1440 272
FLAG 1440 304 0
FLAG 1152 0 0
SYMBOL voltage 1152 -96 R0
WINDOW 123 0 0 Left 2
WINDOW 39 0 0 Left 2
SYMATTR InstName V1
SYMATTR Value 10
SYMBOL 2N2369A_Avalanche 1376 96 R0
SYMATTR InstName X1
SYMBOL current 1264 224 R180
WINDOW 0 24 80 Left 2
WINDOW 3 24 0 Left 2
WINDOW 123 0 0 Left 2
WINDOW 39 0 0 Left 2
SYMATTR InstName I1
SYMATTR Value 0
SYMBOL diode 1264 -112 R270
WINDOW 0 32 32 VTop 2
WINDOW 3 0 32 VBottom 2
SYMATTR InstName D1
SYMATTR Value OGR
TEXT 936 352 Left 2 !.dc v1 10m 16 10m i1 0 20u 5u
TEXT 1144 -184 Left 2 !.model OGR d ron=10m ilimit=1000m
