Version 4
SHEET 1 880 696
WIRE -144 -144 -192 -144
WIRE -16 -144 -64 -144
WIRE 48 -144 -16 -144
WIRE -192 -112 -192 -144
WIRE -16 -96 -16 -144
WIRE 48 -48 48 -144
WIRE 80 -48 48 -48
WIRE -192 16 -192 -32
WIRE -16 16 -16 -16
WIRE -16 16 -192 16
WIRE -16 48 -16 16
WIRE 80 80 48 80
WIRE 528 80 464 80
WIRE 48 112 48 80
WIRE 528 112 528 80
WIRE 48 224 48 192
WIRE 528 224 528 192
FLAG 528 224 0
FLAG -16 -144 In
FLAG 528 80 Out
FLAG -16 48 0
FLAG 48 224 0
SYMBOL voltage -192 -128 R0
WINDOW 123 24 124 Left 2
WINDOW 39 0 0 Left 2
WINDOW 0 38 38 Left 2
SYMATTR InstName Vin
SYMATTR Value 10V
SYMBOL res 512 96 R0
SYMATTR InstName R
SYMATTR Value 5
SYMBOL voltage 48 96 M0
SYMATTR InstName VDuty
SYMATTR Value {DutyC}
SYMBOL current -16 -96 M0
WINDOW 123 22 82 Left 2
WINDOW 39 0 0 Left 2
SYMATTR Value2 AC 1
SYMATTR InstName Iinj
SYMATTR Value ""
SYMBOL ind -160 -128 R270
WINDOW 0 32 56 VTop 2
WINDOW 3 5 56 VBottom 2
SYMATTR InstName Lisol
SYMATTR Value 1kH
SYMBOL Buck-VM-Power_Train 208 80 R0
SYMATTR InstName X1
TEXT 288 -104 Left 2 !.Param DutyC=0.5
TEXT 288 -128 Left 2 !.ac dec 100 1Hz 100kHz
