Version 4
SHEET 1 880 904
WIRE 96 -160 -48 -160
WIRE 240 -160 96 -160
WIRE 96 -144 96 -160
WIRE 240 -144 240 -160
WIRE 464 -128 384 -128
WIRE 528 -128 464 -128
WIRE -48 -80 -48 -160
WIRE 464 -80 464 -128
WIRE 528 -80 528 -128
WIRE 384 -64 384 -128
WIRE 96 -48 96 -64
WIRE 128 -48 96 -48
WIRE 240 -48 240 -64
WIRE 240 -48 208 -48
WIRE 96 -32 96 -48
WIRE 240 -32 240 -48
WIRE -48 64 -48 0
WIRE 96 64 96 48
WIRE 176 64 96 64
WIRE 240 64 240 48
WIRE 240 64 176 64
WIRE 384 64 384 16
WIRE 464 64 464 0
WIRE 528 64 528 0
WIRE 176 80 176 64
WIRE 96 128 -48 128
WIRE 240 128 96 128
WIRE 96 144 96 128
WIRE 240 144 240 128
WIRE -48 208 -48 128
WIRE 96 240 96 224
WIRE 128 240 96 240
WIRE 240 240 240 224
WIRE 240 240 208 240
WIRE 96 256 96 240
WIRE 240 256 240 240
WIRE -48 352 -48 288
WIRE 96 352 96 336
WIRE 176 352 96 352
WIRE 240 352 240 336
WIRE 240 352 176 352
WIRE 176 368 176 352
WIRE 96 416 -48 416
WIRE 240 416 96 416
WIRE 96 432 96 416
WIRE 240 432 240 416
WIRE 96 528 96 512
WIRE 128 528 96 528
WIRE 240 528 240 512
WIRE 240 528 208 528
WIRE 96 544 96 528
WIRE 240 544 240 528
WIRE -48 640 -48 416
WIRE 96 640 96 624
WIRE 176 640 96 640
WIRE 240 640 240 624
WIRE 240 640 176 640
WIRE 176 656 176 640
FLAG -48 64 0
FLAG 176 80 0
FLAG -48 352 0
FLAG 176 368 0
FLAG -48 640 0
FLAG 176 656 0
FLAG 384 64 0
FLAG 528 64 0
FLAG 464 64 0
SYMBOL res 80 -160 R0
WINDOW 0 -33 49 Left 0
WINDOW 3 35 21 Left 0
SYMATTR InstName R1
SYMATTR Value 15
SYMBOL res 224 -160 R0
WINDOW 0 35 56 Left 0
WINDOW 3 -19 24 Left 0
SYMATTR InstName R2
SYMATTR Value 20
SYMBOL res 80 -48 R0
WINDOW 0 -33 58 Left 0
WINDOW 3 25 96 Left 0
SYMATTR InstName R3
SYMATTR Value 10
SYMBOL res 224 -48 R0
WINDOW 0 37 55 Left 0
WINDOW 3 -26 94 Left 0
SYMATTR InstName R4
SYMATTR Value 30
SYMBOL res 224 -64 R90
WINDOW 0 0 80 VBottom 0
WINDOW 3 -27 41 VTop 0
SYMATTR InstName R5
SYMATTR Value 25
SYMBOL Misc\\battery -48 -96 R0
WINDOW 123 0 0 Left 0
WINDOW 39 0 0 Left 0
SYMATTR InstName V1
SYMATTR Value 10
SYMBOL res 80 128 R0
WINDOW 0 -52 57 Left 0
WINDOW 3 35 21 Left 0
SYMATTR InstName R1A
SYMATTR Value 15
SYMBOL res 224 128 R0
WINDOW 0 35 56 Left 0
WINDOW 3 -19 24 Left 0
SYMATTR InstName R2A
SYMATTR Value 20
SYMBOL res 80 240 R0
WINDOW 0 -51 63 Left 0
WINDOW 3 25 96 Left 0
SYMATTR InstName R3A
SYMATTR Value 10
SYMBOL res 224 240 R0
WINDOW 0 41 59 Left 0
WINDOW 3 -26 94 Left 0
SYMATTR InstName R4A
SYMATTR Value 30
SYMBOL Misc\\battery -48 192 R0
WINDOW 123 0 0 Left 0
WINDOW 39 0 0 Left 0
SYMATTR InstName V2
SYMATTR Value 10
SYMBOL res 80 416 R0
WINDOW 0 -44 62 Left 0
WINDOW 3 35 21 Left 0
SYMATTR InstName R1B
SYMATTR Value 15
SYMBOL res 224 416 R0
WINDOW 0 40 61 Left 0
WINDOW 3 -19 24 Left 0
SYMATTR InstName R2B
SYMATTR Value 20
SYMBOL res 80 528 R0
WINDOW 0 -49 59 Left 0
WINDOW 3 25 96 Left 0
SYMATTR InstName R3B
SYMATTR Value 10
SYMBOL res 224 528 R0
WINDOW 0 40 57 Left 0
WINDOW 3 -26 94 Left 0
SYMATTR InstName R4B
SYMATTR Value 30
SYMBOL Misc\\battery 224 528 R90
WINDOW 0 -32 56 VBottom 0
WINDOW 3 32 56 VTop 0
WINDOW 123 0 0 Left 0
WINDOW 39 0 0 Left 0
SYMATTR InstName V3
SYMATTR Value 5
SYMBOL res 512 -96 R0
WINDOW 0 -20 26 Left 0
WINDOW 3 39 66 Left 0
SYMATTR InstName RL
SYMATTR Value 25
SYMBOL res 480 16 R180
WINDOW 0 23 88 Left 0
WINDOW 3 -15 13 Left 0
SYMATTR InstName Rn
SYMATTR Value 18
SYMBOL current 384 16 R180
WINDOW 3 4 -9 Left 0
WINDOW 123 0 0 Left 0
WINDOW 39 0 0 Left 0
WINDOW 0 39 38 Left 0
SYMATTR Value 111m
SYMATTR InstName In
SYMBOL voltage 224 240 R90
WINDOW 0 -32 56 VBottom 0
WINDOW 3 -14 56 VTop 0
WINDOW 123 0 0 Left 0
WINDOW 39 0 0 Left 0
SYMATTR InstName V4
SYMATTR Value 0
TEXT 128 -16 Left 0 ;46.5mA
TEXT 56 240 Left 0 ;4V
TEXT 248 240 Left 0 ;6V
TEXT 112 288 Left 0 ;In = 111 mA
TEXT 272 512 Left 0 ;The value of V3 is arbitrary.\nV3 is used here to "measure" Rn.
TEXT 400 152 Left 0 !.op
TEXT -56 712 Left 0 ;Rn = V3/I(V3) = 5V/278mA = 18 Ohms
TEXT -232 -192 Left 0 ;I(R5) = I(RL) = In x Rn/(Rn + RL) = 111mA x 18 Ohms/(18 Ohms + 25 Ohms) = 46.5 mA
TEXT 304 224 Left 0 ;(Take the time to compare\nthis file with the file "Thevenin.")
