* OrCAD Model Editor - Version 9.1

*$
*////////////////////////////////////////////////////////////////////// 
* (C) National Semiconductor, Corporation. 
* Models developed and under copyright by: 
* National Semiconductor, Corporation. 
*///////////////////////////////////////////////////////////////////// 
* Legal Notice: 
* The model may be copied, and distributed without any modifications; 
* however, reselling or licensing the material is illegal. 
* We reserve the right to make changes to the model without prior notice. 
* Pspice Models are provided "AS IS, WITH NO WARRANTY OF ANY KIND" 
*//////////////////////////////////////////////////////////////////// 
* For more information, and our latest models, 
* please visit the models section of our website at 
*       http://www.national.com/models/ 
*//////////////////////////////////////////////////////////////////// 
* LMH6672 SUBCIRCUIT 
* REV R - 3-OCT-2001 
* THIS PINOUT IS FOR 
* AMPLIFIER A ONLY 
* PINOUT ORDER  -IN +IN VCC VEE OUT 
* PINOUT         2   3   8   4   1 
.SUBCKT LMH6672 2 3 8 4 1 
R1 7 0 1.8E6 
D1 7 34 D1M 
D2 18 0 DV2M 
E1 34 0 5 0 1.0 
R2 7 5 1000 
C1 5 12 2.88E-12 
D7 23 0 DV2M 
G2 0 13 5 0 0.1 
I4 0 18 1.068E-4 
R3 13 0 10 
C2 13 0 70E-12 
G4 0 14 13 0 0.1 
R4 14 0 10 
C3 14 0 25E-12 
D10 19 8 D10M 
V1 19 20 1.83 
I8 0 23 1.068E-4 
D15 4 21 D10M 
V2 22 21 1.63 
I7 28 29 3.2E-6 
E3 3 45 23 18 0.55 
D8 37 0 DI8M 
C4 26 0 2E-12 
D11 34 7 D1M 
E2 5 22 27 0 1 
E4 20 5 27 0 1 
I3 0 30 1E-3 
D12 30 0 D12M 
D9 40 0 DI8M 
I9 0 37 1.068E-4 
V3 27 30 -0.71465 
R6 8 4 50E3 
V4 12 0 0 
L1 31 1 2E-9 
I1 8 4 0.7E-3 
Q34 33 28 29 Q34M 
Q35 17 35 36 Q35M 
Q36 16 2 38 Q35M 
Q1 8 32 26 Q1M 
R11 33 36 325 
R12 33 38 325 
Q2 8 14 39 Q2M 
Q3 4 39 26 Q3M 
Q4 4 14 32 Q4M 
R18 15 24 10E3 
I10 0 40 1.068E-4 
D14 24 42 D14M 
R7 31 1 1E3 
R9 26 31 1 
V6 35 45 4E-3 
G3 2 45 40 37 0.0123E-12 
R10 16 4 2E3 
R13 17 4 2E3 
G5 0 7 16 17 0.8E-3 
G6 0 7 0 81 -1E-9 
G7 0 7 0 48 -8.8E-7 
D3 35 8 D3M 
I6 35 4 4.1E-6 
I11 2 4 4.0E-6 
E5 15 0 8 4 1 
R16 15 41 10E3 
D13 41 25 D13M 
D4 2 8 D3M 
D5 4 35 D3M 
D6 4 2 D3M 
V7 8 29 0.8 
V10 25 0 3.4 
G1 0 48 8 0 1 
R17 49 48 1 
L2 0 49 1.2E-6 
R20 0 49 1200 
G8 8 4 41 0 0.5E-3 
G9 0 57 4 0 1 
G11 8 32 24 0 0.160E-3 
G13 39 4 43 0 0.135E-3 
V11 42 0 4.4 
R19 15 43 10E3 
D16 43 44 D16M 
V12 44 0 3.3 
D17 43 15 D17M 
R21 74 57 1 
L5 0 74 1.2E-6 
R22 0 74 1200 
G10 0 7 57 0 8.8E-7 
R34 81 82 1 
L6 82 0 1.5E-4 
R35 82 0 10E3 
R23 3 0 1E12 
R24 27 0 1E12 
G12 0 81 33 0 1 
C8 45 0 1E-12 
C9 2 0 1E-12 
D18 1 8 D3M 
D19 4 1 D3M 
.MODEL D1M D IS=5.002E-16 
.MODEL DV2M D IS=1E-16 KF=1E-14 
.MODEL D10M D IS=1E-15 
.MODEL DI8M D IS=1E-16 KF=1E-15 
.MODEL D12M D IS=7E-9 M=0.333 N=1.67 
+ RS=2.95E-01 TT=2.88E-09 VJ=0.75 
.MODEL Q34M PNP 
.MODEL Q35M PNP BF=40 KF=1.5E-14 
.MODEL Q1M NPN BF=750 RC=0.75 RE=0.35 
.MODEL Q2M NPN BF=75 
.MODEL Q3M PNP BF=750 RC=4 RE=1.35 
.MODEL Q4M PNP BF=75 
.MODEL D14M D IS=1.0E-14 RS=2700 
.MODEL D3M D IS=3E-14 RS=0.5 
.MODEL D13M D IS=1.0E-14 RS=1 
.MODEL D16M D IS=1.0E-14 RS=1000 
.MODEL D17M D BV=3.3 IBV=1E-3 IS=1.0E-14 
.ENDS 
*$
*////////////////////////////////////////////////////////////////////// 
* (C) National Semiconductor, Corporation. 
* Models developed and under copyright by: 
* National Semiconductor, Corporation.   
*///////////////////////////////////////////////////////////////////// 
* Legal Notice:   
* The model may be copied, and distributed without any modifications; 
* however, reselling or licensing the material is illegal. 
* We reserve the right to make changes to the model without prior notice.  
* Pspice Models are provided "AS IS, WITH NO WARRANTY OF ANY KIND"  
*//////////////////////////////////////////////////////////////////// 
* LMH6655 SUBCIRCUIT 
* NOTE - THIS MODEL HAS PINOUT 
* FOR THE A AMPLIFIER ONLY 
* PINOUT ORDER  -IN +IN VCC VEE OUT 
* PINOUT         2   3   8   4   1 
.SUBCKT LMH6655 2 3 8 4 1 
I2 8 32 1.25E-3 
I5 39 4 1.25E-3 
R1 9 0 1.8E6 
D1 9 34 D1M 
D2 18 0 DV2M 
E1 34 0 5 0 1.0 
R2 9 5 100 
C1 5 12 2.2E-12 
D7 23 0 DV2M 
G2 0 13 5 0 0.1 
I4 0 18 1.068E-4 
R3 13 0 10 
C2 13 0 75E-12 
G4 0 14 13 0 0.1 
R4 14 0 10 
C3 14 0 5.2E-12 
D10 19 8 D10M 
V1 19 20 2.1 
I8 0 23 1.068E-4 
D15 4 21 D10M 
V2 22 21 1.73 
I7 28 29 3.2E-6 
E3 3 45 23 18 0.55 
D8 37 0 DI8M 
C4 26 0 6.5E-12 
D11 34 9 D1M 
E2 5 22 27 0 1 
E4 20 5 27 0 1 
I3 0 30 1E-3 
D12 30 0 D12M 
D9 40 0 DI8M 
I9 0 37 1.068E-4 
V3 27 30 -0.71465 
R6 8 4 50E3 
V4 12 0 0 
L1 31 1 2.5E-9 
I1 8 4 0.5E-3 
Q34 33 28 29 Q34M 
Q35 17 35 36 Q35M 
Q36 16 2 38 Q35M 
Q1 8 32 26 Q1M 
R11 33 36 325 
R12 33 38 325 
Q2 8 14 39 Q2M 
Q3 4 39 26 Q3M 
Q4 4 14 32 Q4M 
I10 0 40 1.068E-4 
R7 31 1 1E3 
R9 26 31 9.7 
V6 35 45 1E-3 
G3 2 45 40 37 0.49E-6 
R10 16 4 2E3 
R13 17 4 2E3 
G5 0 9 16 17 0.815E-3 
G6 0 9 0 81 -1E-8 
G7 0 9 0 48 -8.8E-7 
D3 35 8 D3M 
I6 35 4 2.95E-6 
I11 2 4 2.65E-6 
D4 2 8 D3M 
D5 4 35 D3M 
D6 4 2 D3M 
V7 8 29 0.63 
G1 0 48 8 0 1 
R17 49 48 1 
L2 0 49 1.2E-6 
R20 0 49 1200 
G9 0 57 4 0 1 
R21 74 57 1 
L5 0 74 1.2E-6 
R22 0 74 1200 
G10 0 9 57 0 8.8E-8 
R34 81 82 1 
L6 82 0 2E-5 
R35 82 0 3E3 
R23 3 0 1E12 
R24 27 0 1E12 
G12 0 81 33 0 1 
C8 45 0 1.8E-12 
C9 2 0 1.8E-12 
D18 1 8 D3M 
D19 4 1 D3M 
.MODEL D1M D IS=5.002E-16 
.MODEL DV2M D IS=1E-16 KF=2E-14 
.MODEL D10M D IS=1E-15 
.MODEL DI8M D IS=1E-16 KF=1E-15 
.MODEL D12M D IS=7E-9 M=0.333 N=1.67 
+ RS=2.95E-01 TT=2.88E-09 VJ=0.75 
.MODEL Q34M PNP 
.MODEL Q35M PNP BF=40 KF=1.1E-14 
.MODEL Q1M NPN BF=224 RC=1 RE=0.3 
.MODEL Q2M NPN BF=75 
.MODEL Q3M PNP BF=149 RC=3 RE=1 
.MODEL Q4M PNP BF=75 
.MODEL D14M D IS=1.0E-14 RS=2700 
.MODEL D3M D IS=3E-14 RS=0.5 
.ENDS 
*$
*//////////////////////////////////////////////////////////////////////  
*(C) National Semiconductor, Corporation.  
* Models developed and under copyright by:  
* National Semiconductor, Corporation.  
*/////////////////////////////////////////////////////////////////////  
* Legal Notice:  
* The model may be copied, and distributed without any modifications;  
* however, reselling or licensing the material is illegal.  
* We reserve the right to make changes to the model without prior notice.  
* Pspice Models are provided "AS IS, WITH NO WARRANTY OF ANY KIND"  
*////////////////////////////////////////////////////////////////////  
*BEGIN MODEL LMH6647 
*PINOUT ORDER  -IN +IN V+ V- OUT 
*PINOUT ORDER    4  3   5  2  1 
.SUBCKT LMH6647 4 3 5 2 1 
Q1 6 7 8 QIN 
Q2 9 10 11 QIN 
Q3 12 13 14 QN 
Q4 13 13 14 QN 
Q5 15 10 16 QIP 
Q6 17 18 19 QIP 
Q7 20 21 22 QP 
Q12 23 24 25 QP 
Q13 26 26 22 QP 
Q14 27 27 26 QP 
Q15 25 28 22 QP 
Q16 13 29 20 QP 
Q17 1 25 30 QOP 
Q18 31 31 32 QN 
Q19 32 32 33 QN 
Q20 23 34 14 QN 
Q21 1 23 35 QON 
Q22 25 31 23 QN 
R1 12 8 125 
R2 12 11 125 
R3 19 20 125 
R4 16 20 125 
R5 36 37 200 
R7 6 22 300 
R8 14 15 300 
R9 14 17 300 
R10 34 35 100 
R11 28 30 100 
R12 30 5 11.2 
R13 2 35 12 
V3 22 29 1.4 
I1 21 22 4E-6 
I4 24 14 0.85E-3 
I5 22 31 0.85E-3 
I6 22 25 2E-3 
I7 23 14 2E-3 
G1 23 14 38 39 -0.4E-3 
R15 41 10 200 
R16 38 42 50 
C2 42 1 10E-12 
R17 24 27 11.2 
R18 14 33 12 
Q24 43 43 7 QP 
Q25 10 10 43 QP 
Q26 7 7 44 QN 
Q27 44 44 10 QN 
D1 7 22 D1 
D2 10 22 D1 
D3 14 18 D1 
D4 14 10 D1 
D5 1 5 D1 
D6 2 1 D1 
V5 7 18 -0.35E-3 
V6 37 18 -0.1E-3 
D7 45 0 DIN 
D8 46 0 DIN 
I8 0 45 0.1E-3 
I9 0 46 0.1E-3 
E2 14 0 2 0 1 
E3 22 0 5 0 1 
C4 36 0 2E-12 
C5 4 0 2E-12 
D9 47 0 DVN 
D10 48 0 DVN 
I10 0 47 0.1E-3 
I11 0 48 0.1E-3 
E4 41 4 47 48 7.8 
G2 36 41 45 46 2.8E-4 
I12 2 5 0.115E-3 
R22 2 5 97.3E3 
E5 49 0 22 0 1 
E6 50 0 14 0 1 
E7 51 0 52 0 1 
R30 49 53 1E6 
R31 50 54 1E6 
R32 51 55 1E6 
R33 0 53 100 
R34 0 54 100 
R35 0 55 10E3 
E10 56 3 55 0 8E-4 
R36 41 52 1E9 
R37 52 36 1E9 
C6 49 53 1E-12 
C7 50 54 3E-12 
C8 51 55 3E-12 
R6 9 22 300 
E11 57 56 54 0 0.15 
E12 36 57 53 0 0.05 
G3 38 39 9 6 2E-3 
G4 38 39 15 17 2E-3 
R40 38 39 1E6 
E14 39 14 22 14 0.5 
D11 38 22 D1 
D12 14 38 D1 
C9 9 6 3E-12 
C10 15 17 3E-12 
.MODEL D1 D 
.MODEL QN NPN 
.MODEL QP PNP 
.MODEL QON NPN VAF=40 RC=2 RE=3 IKF=0.1 
.MODEL QOP PNP VAF=40 RC=2 RE=3 IKF=0.1 
.MODEL QIN NPN KF=1.25E-15 BF=333 
.MODEL QIP PNP KF=1.25E-15 BF=333 
.MODEL DVN D KF=1.85E-16 
.MODEL DIN D KF=8E-17 
.ENDS 
*END MODEL LMH6647 
*$
*//////////////////////////////////////////////////////////////////////  
*(C) National Semiconductor, Corporation.  
* Models developed and under copyright by:  
* National Semiconductor, Corporation.  
*/////////////////////////////////////////////////////////////////////  
* Legal Notice:  
* The model may be copied, and distributed without any modifications;  
* however, reselling or licensing the material is illegal.  
* We reserve the right to make changes to the model without prior notice.  
* Pspice Models are provided "AS IS, WITH NO WARRANTY OF ANY KIND"  
*////////////////////////////////////////////////////////////////////  
*BEGIN MODEL LMH6646 
*PINOUT ORDER  -IN +IN V+ V- OUT 
*PINOUT ORDER    4  3   5  2  1 
.SUBCKT LMH6646 4 3 5 2 1 
Q1 6 7 8 QIN 
Q2 9 10 11 QIN 
Q3 12 13 14 QN 
Q4 13 13 14 QN 
Q5 15 10 16 QIP 
Q6 17 18 19 QIP 
Q7 20 21 22 QP 
Q12 23 24 25 QP 
Q13 26 26 22 QP 
Q14 27 27 26 QP 
Q15 25 28 22 QP 
Q16 13 29 20 QP 
Q17 1 25 30 QOP 
Q18 31 31 32 QN 
Q19 32 32 33 QN 
Q20 23 34 14 QN 
Q21 1 23 35 QON 
Q22 25 31 23 QN 
R1 12 8 125 
R2 12 11 125 
R3 19 20 125 
R4 16 20 125 
R5 36 37 200 
R7 6 22 300 
R8 14 15 300 
R9 14 17 300 
R10 34 35 100 
R11 28 30 100 
R12 30 5 11.2 
R13 2 35 12 
V3 22 29 1.4 
I1 21 22 4E-6 
I4 24 14 0.85E-3 
I5 22 31 0.85E-3 
I6 22 25 2E-3 
I7 23 14 2E-3 
G1 23 14 38 39 -0.4E-3 
R15 41 10 200 
R16 38 42 50 
C2 42 1 10E-12 
R17 24 27 11.2 
R18 14 33 12 
Q24 43 43 7 QP 
Q25 10 10 43 QP 
Q26 7 7 44 QN 
Q27 44 44 10 QN 
D1 7 22 D1 
D2 10 22 D1 
D3 14 18 D1 
D4 14 10 D1 
D5 1 5 D1 
D6 2 1 D1 
V5 7 18 -0.35E-3 
V6 37 18 -0.1E-3 
D7 45 0 DIN 
D8 46 0 DIN 
I8 0 45 0.1E-3 
I9 0 46 0.1E-3 
E2 14 0 2 0 1 
E3 22 0 5 0 1 
C4 36 0 2E-12 
C5 4 0 2E-12 
D9 47 0 DVN 
D10 48 0 DVN 
I10 0 47 0.1E-3 
I11 0 48 0.1E-3 
E4 41 4 47 48 7.8 
G2 36 41 45 46 2.8E-4 
I12 2 5 0.115E-3 
R22 2 5 97.3E3 
E5 49 0 22 0 1 
E6 50 0 14 0 1 
E7 51 0 52 0 1 
R30 49 53 1E6 
R31 50 54 1E6 
R32 51 55 1E6 
R33 0 53 100 
R34 0 54 100 
R35 0 55 10E3 
E10 56 3 55 0 8E-4 
R36 41 52 1E9 
R37 52 36 1E9 
C6 49 53 1E-12 
C7 50 54 3E-12 
C8 51 55 3E-12 
R6 9 22 300 
E11 57 56 54 0 0.15 
E12 36 57 53 0 0.05 
G3 38 39 9 6 2E-3 
G4 38 39 15 17 2E-3 
R40 38 39 1E6 
E14 39 14 22 14 0.5 
D11 38 22 D1 
D12 14 38 D1 
C9 9 6 3E-12 
C10 15 17 3E-12 
.MODEL D1 D 
.MODEL QN NPN 
.MODEL QP PNP 
.MODEL QON NPN VAF=40 RC=2 RE=3 IKF=0.1 
.MODEL QOP PNP VAF=40 RC=2 RE=3 IKF=0.1 
.MODEL QIN NPN KF=1.25E-15 BF=333 
.MODEL QIP PNP KF=1.25E-15 BF=333 
.MODEL DVN D KF=1.85E-16 
.MODEL DIN D KF=8E-17 
.ENDS 
*END MODEL LMH6646 
*$
*////////////////////////////////////////////////////////////////////// 
* (C) National Semiconductor, Corporation. 
* Models developed and under copyright by: 
* National Semiconductor, Corporation.   
*///////////////////////////////////////////////////////////////////// 
* Legal Notice:   
* The model may be copied, and distributed without any modifications; 
* however, reselling or licensing the material is illegal. 
* We reserve the right to make changes to the model without prior notice.  
* Pspice Models are provided "AS IS, WITH NO WARRANTY OF ANY KIND"  
*//////////////////////////////////////////////////////////////////// 
*BEGIN MODEL LMH6645 
*PINOUT ORDER  -IN +IN V+ V- OUT 
*PINOUT ORDER    4  3   5  2  1 
.SUBCKT LMH6645 4 3 5 2 1 
Q1 6 7 8 QIN 
Q2 9 10 11 QIN 
Q3 12 13 14 QN 
Q4 13 13 14 QN 
Q5 15 10 16 QIP 
Q6 17 18 19 QIP 
Q7 20 21 22 QP 
Q12 23 24 25 QP 
Q13 26 26 22 QP 
Q14 27 27 26 QP 
Q15 25 28 22 QP 
Q16 13 29 20 QP 
Q17 1 25 30 QOP 
Q18 31 31 32 QN 
Q19 32 32 33 QN 
Q20 23 34 14 QN 
Q21 1 23 35 QON 
Q22 25 31 23 QN 
R1 12 8 125 
R2 12 11 125 
R3 19 20 125 
R4 16 20 125 
R5 36 37 200 
R7 6 22 300 
R8 14 15 300 
R9 14 17 300 
R10 34 35 100 
R11 28 30 100 
R12 30 5 11.2 
R13 2 35 12 
V3 22 29 1.4 
I1 21 22 4E-6 
I4 24 14 0.85E-3 
I5 22 31 0.85E-3 
I6 22 25 2E-3 
I7 23 14 2E-3 
G1 23 14 38 39 -0.4E-3 
R15 41 10 200 
R16 38 42 50 
C2 42 1 10E-12 
R17 24 27 11.2 
R18 14 33 12 
Q24 43 43 7 QP 
Q25 10 10 43 QP 
Q26 7 7 44 QN 
Q27 44 44 10 QN 
D1 7 22 D1 
D2 10 22 D1 
D3 14 18 D1 
D4 14 10 D1 
D5 1 5 D1 
D6 2 1 D1 
V5 7 18 -0.35E-3 
V6 37 18 -0.1E-3 
D7 45 0 DIN 
D8 46 0 DIN 
I8 0 45 0.1E-3 
I9 0 46 0.1E-3 
E2 14 0 2 0 1 
E3 22 0 5 0 1 
C4 36 0 2E-12 
C5 4 0 2E-12 
D9 47 0 DVN 
D10 48 0 DVN 
I10 0 47 0.1E-3 
I11 0 48 0.1E-3 
E4 41 4 47 48 7.8 
G2 36 41 45 46 2.8E-4 
I12 2 5 0.115E-3 
R22 2 5 97.3E3 
E5 49 0 22 0 1 
E6 50 0 14 0 1 
E7 51 0 52 0 1 
R30 49 53 1E6 
R31 50 54 1E6 
R32 51 55 1E6 
R33 0 53 100 
R34 0 54 100 
R35 0 55 10E3 
E10 56 3 55 0 8E-4 
R36 41 52 1E9 
R37 52 36 1E9 
C6 49 53 1E-12 
C7 50 54 3E-12 
C8 51 55 3E-12 
R6 9 22 300 
E11 57 56 54 0 0.15 
E12 36 57 53 0 0.05 
G3 38 39 9 6 2E-3 
G4 38 39 15 17 2E-3 
R40 38 39 1E6 
E14 39 14 22 14 0.5 
D11 38 22 D1 
D12 14 38 D1 
C9 9 6 3E-12 
C10 15 17 3E-12 
.MODEL D1 D 
.MODEL QN NPN 
.MODEL QP PNP 
.MODEL QON NPN VAF=40 RC=2 RE=3 IKF=0.1 
.MODEL QOP PNP VAF=40 RC=2 RE=3 IKF=0.1 
.MODEL QIN NPN KF=1.25E-15 BF=333 
.MODEL QIP PNP KF=1.25E-15 BF=333 
.MODEL DVN D KF=1.85E-16 
.MODEL DIN D KF=8E-17 
.ENDS 
*END MODEL LMH6645 
 
*$
*////////////////////////////////////////////////////////////////////// 
* (C) National Semiconductor, Corporation. 
* Models developed and under copyright by: 
* National Semiconductor, Corporation.   
*///////////////////////////////////////////////////////////////////// 
* Legal Notice:   
* The model may be copied, and distributed without any modifications; 
* however, reselling or licensing the material is illegal. 
* We reserve the right to make changes to the model without prior notice.  
* Pspice Models are provided "AS IS, WITH NO WARRANTY OF ANY KIND"  
*//////////////////////////////////////////////////////////////////// 
* PINOUT ORDER -IN +IN VCC VEE OUT 
* PINOUT ORDER  2   3   7   4   6 
.SUBCKT LMH6644 2 3 7 4 6 
E1 39 0 14 0 16 
C8 45 0 1E-12 
C9 2 0 1E-12 
RC1 42 0 1E12 
I1 7 46 175E-6 
I2 5 4 50E-6 
D2 18 0 DVM 
I3 7 12 50E-6 
C1 13 92 8E-12 
D7 23 0 DVM 
R1 14 13 100 
I4 0 18 1.068E-4 
R2 7 15 1 
R3 4 16 1 
R4 17 98 100 
R5 19 97 100 
R6 46 8 1 
R7 7 21 500 
R8 7 22 500 
R9 24 4 500 
R10 25 4 500 
I8 0 23 1.068E-4 
I5 26 7 20E-6 
I6 4 27 20E-6 
I7 28 29 13E-6 
CC2 14 30 0.0085E-12 
E3 3 45 23 18 7.8 
D8 37 0 DIM 
Q1 30 27 24 Q2M 
Q2 14 27 25 Q2M 
Q3 34 9 4 Q1M 
Q4 9 9 4 Q1M 
Q5 92 34 16 Q5M 
Q8 34 17 4 Q1M 
D9 40 0 DIM 
I9 0 37 1.068E-4 
Q26 12 12 31 Q1M 
Q27 7 12 34 Q1M 
Q28 92 8 15 Q28M 
Q29 20 19 7 Q29M 
Q30 5 5 32 Q29M 
Q31 34 5 46 Q29M 
Q32 30 26 21 Q33M 
Q33 14 26 22 Q33M 
Q34 33 28 29 Q29M 
Q35 25 35 36 Q35M 
Q36 24 2 38 Q35M 
R11 33 36 135 
R12 33 38 135 
Q37 32 32 7 Q29M 
Q38 31 31 4 Q1M 
R13 20 41 100E3 
M1 9 20 46 46 WPM 
I10 0 40 1.068E-4 
E2 41 39 42 43 1 
V3 7 42 2 
R14 7 43 10E6 
R15 43 4 10E6 
D1 46 44 D1M 
V4 44 20 0.75 
V6 35 45 1E-3 
IQA 7 4 -1.00E-3 
G3 2 45 40 37 2.3E-4 
D3 35 7 D3M 
D4 2 7 D3M 
D5 4 35 D3M 
D6 4 2 D3M 
V7 7 29 0.2 
G1 0 48 7 0 1 
R17 49 48 1 
L2 0 49 10E-6 
R20 0 49 10 
G2 22 21 48 0 7.8E-7 
G9 0 57 4 0 1 
R21 74 57 1 
L5 0 74 12E-6 
R22 0 74 120 
G10 21 22 57 0 -7.8E-7 
R34 81 82 1 
L6 82 0 20E-6 
R35 82 0 100 
G11 21 22 81 0 2.6E-8 
G12 0 81 33 0 1 
R48 92 6 3 
E5 97 7 7 15 -6.7 
E6 98 4 16 4 4.85 
.MODEL Q1M NPN 
.MODEL Q2M NPN (VAF=150) 
.MODEL Q5M NPN (BF=1000 VAF=125) 
.MODEL Q28M PNP (BF=165 VAF=100) 
.MODEL Q29M PNP 
.MODEL Q33M PNP (VAF=150) 
.MODEL Q35M PNP (BF=406 KF=3E-17) 
.MODEL WPM PMOS (KP=1E-3 VTO=-0.6) 
.MODEL DVM D (IS=1E-16 KF=2.7E-15) 
.MODEL DIM D (IS=1E-16 KF=4.5E-15) 
.MODEL D1M D (IS=7E-14 M=0.45 N=2 TT=6E-09) 
.MODEL D3M D (IS=3E-14) 
.ENDS 
*$
* ////////////////////////////////////////////////////////////////////// 
*(C) National Semiconductor, Corporation. 
* Models developed and under copyright by: 
* National Semiconductor, Corporation. 
* ///////////////////////////////////////////////////////////////////// 
* Legal Notice: * The model may be copied, and distributed without any 
* modifications; 
* however, reselling or licensing the material is illegal. 
* We reserve the right to make changes to the model without prior notice. 
* Pspice Models are provided "AS IS, WITH NO WARRANTY OF ANY KIND"
* //////////////////////////////////////////////////////////////////// 

* LMH6643 SPICE MODEL
* PINOUT ORDER -IN +IN VCC VEE OUT
* PINOUT ORDER  2   3   7   4   6
.SUBCKT LMH6643 2 3 7 4 6
C4 30 94 7E-20
R50 94 14 700E3
C10 20 96 0.35E-15
R52 96 0 20E3
CC2 14 30 0.0085E-12
E1 39 0 14 0 16
C8 45 0 1E-12
C9 2 0 1E-12
RC1 42 0 1E12
I1 7 46 175E-6
I2 5 4 50E-6
D2 18 0 DVM
I3 7 12 50E-6
C1 13 92 8E-12
D7 23 0 DVM
R1 14 13 100
I4 0 18 1.068E-4
R2 7 15 1
R3 4 16 1
R4 17 98 100
R5 19 97 100
R6 46 8 1
R7 7 21 500
R8 7 22 500
R9 24 80 500
R10 25 80 500
I8 0 23 1.068E-4
I5 26 7 20E-6
I6 80 27 20E-6
I7 28 29 13E-6
E3 3 45 23 18 7.8
D8 37 0 DIM
Q1 30 27 24 Q2M
Q2 14 27 25 Q2M
Q3 34 9 80 Q1M
Q4 9 9 80 Q1M
Q5 92 34 16 Q5M
Q8 34 17 4 Q1M
D9 40 0 DIM
I9 0 37 1.068E-4
Q26 12 12 31 Q1M
Q27 7 12 34 Q1M
Q28 92 8 15 Q28M
Q29 20 19 7 Q29M
Q30 5 5 32 Q29M
Q31 34 5 46 Q29M
Q32 30 26 21 Q33M
Q33 14 26 22 Q33M
Q34 33 28 29 Q29M
Q35 84 35 36 Q35M
Q36 83 2 38 Q35M
R11 33 36 135
R12 33 38 135
Q37 32 32 7 Q29M
Q38 31 31 4 Q1M
R13 20 41 100E3
M1 9 20 46 46 WPM
I10 0 40 1.068E-4
E2 41 39 42 43 1
V3 7 42 2
R14 7 43 10E6
R15 43 80 10E6
D1 46 44 D1M
V4 44 20 0.75
V6 35 45 1E-3
IQA 7 4 -1.00E-3
G3 2 45 40 37 2.3E-4
D3 35 7 D3M
D4 2 7 D3M
D5 4 35 D3M
D6 4 2 D3M
V7 7 29 0.2
G1 0 48 7 0 1
R17 49 48 1
L2 0 49 10E-6
R20 0 49 10
G2 22 21 48 0 7.8E-7
G9 0 57 4 0 1
R21 74 57 1
L5 0 74 12E-6
R22 0 74 120
G10 21 22 57 0 -7.8E-7
R34 81 82 1
L6 82 0 20E-6
R35 82 0 100
G11 21 22 81 0 2.6E-8
G12 0 81 33 0 1
R48 92 6 3
E5 97 7 7 15 -6.7
E6 98 4 16 4 4.85
VCM1 4 80 1.5
VCM2 84 25 1.5
VCM3 83 24 1.5
.MODEL Q1M NPN
.MODEL Q2M NPN (VAF=150)
.MODEL Q5M NPN (BF=1000 VAF=125)
.MODEL Q28M PNP (BF=165 VAF=100)
.MODEL Q29M PNP
.MODEL Q33M PNP (VAF=150)
.MODEL Q35M PNP (BF=406 KF=3E-17)
.MODEL WPM PMOS (KP=1E-3 VTO=-0.6)
.MODEL DVM D (IS=1E-16 KF=2.7E-15)
.MODEL DIM D (IS=1E-16 KF=4.5E-15)
.MODEL D1M D (IS=7E-14 M=0.45 N=2 TT=6E-09)
.MODEL D3M D (IS=3E-14)
.ENDS

*$
*////////////////////////////////////////////////////////////////////// 
* (C) National Semiconductor, Corporation. 
* Models developed and under copyright by: 
* National Semiconductor, Corporation. 
*///////////////////////////////////////////////////////////////////// 
* Legal Notice: 
* The model may be copied, and distributed without any modifications; 
* however, reselling or licensing the material is illegal. 
* We reserve the right to make changes to the model without prior notice. 
* Pspice Models are provided "AS IS, WITH NO WARRANTY OF ANY KIND" 
*//////////////////////////////////////////////////////////////////// 
* For more information, and our latest models, 
* please visit the models section of our website at 
*       http://www.national.com/models/ 
*//////////////////////////////////////////////////////////////////// 
* SPICE MODEL LMH6622 
* PINOUT IS FOR A AMP ONLY 
* PINOUT ORDER IS -IN +IN +V -V OUT 
* PINOUT           2   3   8  4  1 
 
.SUBCKT LMH6622 2 3 8 4 1 
Q17 4 9 10 QOP 
Q21 8 11 10 QON 
R3 12 13 12 
R4 12 14 12 
R5 15 16 5 
R8 17 18 300 
R9 19 18 300 
R15 20 21 5 
Q24 22 22 23 QP 
Q25 21 21 22 QP 
Q26 23 23 24 QN 
Q27 24 24 21 QN 
D1 23 25 DD 
D2 21 25 DD 
D3 26 23 DD 
D4 26 21 DD 
D5 1 8 DD 
D6 4 1 DD 
V6 16 23 0.3E-3 
D7 27 0 DIN 
D8 28 0 DIN 
I8 0 27 0.1E-3 
I9 0 28 0.1E-3 
E2 26 0 4 0 1 
E3 25 0 8 0 1 
C4 15 0 1E-12 
C5 2 0 1E-12 
D9 29 0 DVN 
D10 30 0 DVN 
I10 0 29 0.1E-3 
I11 0 30 0.1E-3 
E4 20 2 29 30 0.33 
G2 15 20 27 28 2E-4 
I12 8 4 2.45E-3 
R22 4 8 17E3 
E5 31 0 25 0 1 
E6 32 0 26 0 1 
E7 33 0 34 0 1 
RSP 3 0 1E12 
RS1 52 0 1E12 
RS2 53 0 1E12 
RS3 54 0 1E12 
R30 31 35 1E6 
R31 32 36 1E6 
R32 33 37 1E6 
R33 0 35 100 
R34 0 36 100 
R35 0 37 100 
E10 38 3 37 0 0.4 
R36 39 34 1E3 
R37 34 40 1E3 
C6 31 35 1E-12 
C7 32 36 0.25E-12 
C8 33 37 1E-12 
E11 41 38 36 0 0.36 
E12 15 41 35 0 0.04 
E14 42 26 25 26 0.5 
D11 43 25 DVC 
D12 26 44 DVC 
C10 17 19 1E-16 
Q28 25 45 9 QON 
Q29 26 45 11 QOP 
I13 25 11 1.25E-3 
I14 9 26 1.25E-3 
Q30 17 23 13 QIN 
Q31 19 21 14 QIN 
G6 46 42 47 42 0.1 
G7 45 42 46 42 0.1 
R38 42 46 10 
R39 42 45 10 
C11 46 42 70E-12 
C12 45 45 20E-12 
Q32 12 48 49 QN 
I15 49 48 10E-6 
G8 50 42 17 19 1.1E-3 
R40 42 50 3E6 
C13 42 47 3.3E-12 
R41 47 50 2E3 
D13 50 51 DL 
D14 51 50 DL 
E15 51 42 47 42 1 
V11 43 52 1.32 
V12 53 44 1.52 
E16 52 47 54 0 1 
E17 47 53 54 0 1 
D16 55 0 DVC 
I16 0 55 1E-3 
R42 10 1 5 
V14 49 26 0.62 
V15 25 18 0.9 
V16 54 55 -0.71465 
E18 39 0 20 0 1 
E19 40 0 15 0 1 
I18 23 12 40E-9 
.MODEL DD D 
.MODEL QP PNP 
.MODEL QN NPN 
.MODEL QPV PNP VAF=150 
.MODEL QNV NPN VAF=150 
.MODEL QON NPN VAF=40 RE=6.3 
.MODEL QOP PNP VAF=40 RE=1.7 
.MODEL QIN NPN KF=1.25E-15 BF=100 
.MODEL DVN D KF=1.5E-15
.MODEL DIN D KF=8E-16
.MODEL DL D IS=5.002E-16
.MODEL DVC D IS=7E-9
.ENDS

*$
* ////////////////////////////////////////////////////////////////////// 
*(C) National Semiconductor, Corporation. 
* Models developed and under copyright by: 
* National Semiconductor, Corporation. 
* ///////////////////////////////////////////////////////////////////// 
* Legal Notice: * The model may be copied, and distributed without any 
* modifications; 
* however, reselling or licensing the material is illegal. 
* We reserve the right to make changes to the model without prior notice. 
* Pspice Models are provided "AS IS, WITH NO WARRANTY OF ANY KIND"
* ////////////////////////////////////////////////////////////////////
* LMH6642 SPICE MODEL
* PINOUT ORDER -IN +IN VCC VEE OUT
* PINOUT ORDER  2   3   7   4   6
.SUBCKT LMH6642 2 3 7 4 6
C4 30 94 7E-20
R50 94 14 700E3
C10 20 96 0.35E-15
R52 96 0 20E3
CC2 14 30 0.0085E-12
E1 39 0 14 0 16
C8 45 0 1E-12
C9 2 0 1E-12
RC1 42 0 1E12
I1 7 46 175E-6
I2 5 4 50E-6
D2 18 0 DVM
I3 7 12 50E-6
C1 13 92 8E-12
D7 23 0 DVM
R1 14 13 100
I4 0 18 1.068E-4
R2 7 15 1
R3 4 16 1
R4 17 98 100
R5 19 97 100
R6 46 8 1
R7 7 21 500
R8 7 22 500
R9 24 80 500
R10 25 80 500
I8 0 23 1.068E-4
I5 26 7 20E-6
I6 80 27 20E-6
I7 28 29 13E-6
E3 3 45 23 18 7.8
D8 37 0 DIM
Q1 30 27 24 Q2M
Q2 14 27 25 Q2M
Q3 34 9 80 Q1M
Q4 9 9 80 Q1M
Q5 92 34 16 Q5M
Q8 34 17 4 Q1M
D9 40 0 DIM
I9 0 37 1.068E-4
Q26 12 12 31 Q1M
Q27 7 12 34 Q1M
Q28 92 8 15 Q28M
Q29 20 19 7 Q29M
Q30 5 5 32 Q29M
Q31 34 5 46 Q29M
Q32 30 26 21 Q33M
Q33 14 26 22 Q33M
Q34 33 28 29 Q29M
Q35 84 35 36 Q35M
Q36 83 2 38 Q35M
R11 33 36 135
R12 33 38 135
Q37 32 32 7 Q29M
Q38 31 31 4 Q1M
R13 20 41 100E3
M1 9 20 46 46 WPM
I10 0 40 1.068E-4
E2 41 39 42 43 1
V3 7 42 2
R14 7 43 10E6
R15 43 80 10E6
D1 46 44 D1M
V4 44 20 0.75
V6 35 45 1E-3
IQA 7 4 -1.00E-3
G3 2 45 40 37 2.3E-4
D3 35 7 D3M
D4 2 7 D3M
D5 4 35 D3M
D6 4 2 D3M
V7 7 29 0.2
G1 0 48 7 0 1
R17 49 48 1
L2 0 49 10E-6
R20 0 49 10
G2 22 21 48 0 7.8E-7
G9 0 57 4 0 1
R21 74 57 1
L5 0 74 12E-6
R22 0 74 120
G10 21 22 57 0 -7.8E-7
R34 81 82 1
L6 82 0 20E-6
R35 82 0 100
G11 21 22 81 0 2.6E-8
G12 0 81 33 0 1
R48 92 6 3
E5 97 7 7 15 -6.7
E6 98 4 16 4 4.85
VCM1 4 80 1.5
VCM2 84 25 1.5
VCM3 83 24 1.5
.MODEL Q1M NPN
.MODEL Q2M NPN (VAF=150)
.MODEL Q5M NPN (BF=1000 VAF=125)
.MODEL Q28M PNP (BF=165 VAF=100)
.MODEL Q29M PNP
.MODEL Q33M PNP (VAF=150)
.MODEL Q35M PNP (BF=406 KF=3E-17)
.MODEL WPM PMOS (KP=1E-3 VTO=-0.6)
.MODEL DVM D (IS=1E-16 KF=2.7E-15)
.MODEL DIM D (IS=1E-16 KF=4.5E-15)
.MODEL D1M D (IS=7E-14 M=0.45 N=2 TT=6E-09)
.MODEL D3M D (IS=3E-14)
.ENDS

*$
