Version 4
SHEET 1 1628 1216
WIRE -816 32 -832 32
WIRE -544 32 -560 32
WIRE -272 32 -288 32
WIRE 0 32 -16 32
WIRE 272 32 256 32
WIRE 544 32 528 32
WIRE 800 32 784 32
WIRE 1088 32 1056 32
WIRE -1056 64 -1072 64
WIRE -816 64 -816 32
WIRE -784 64 -816 64
WIRE -544 64 -544 32
WIRE -512 64 -544 64
WIRE -272 64 -272 32
WIRE -240 64 -272 64
WIRE 0 64 0 32
WIRE 32 64 0 64
WIRE 272 64 272 32
WIRE 304 64 272 64
WIRE 544 64 544 32
WIRE 576 64 544 64
WIRE 800 64 800 32
WIRE 832 64 800 64
WIRE 1088 240 1088 32
WIRE 1088 240 -1056 240
WIRE 1296 272 1264 272
WIRE 1536 288 1488 288
WIRE 1296 304 1264 304
WIRE -816 352 -832 352
WIRE -544 352 -560 352
WIRE -272 352 -288 352
WIRE 0 352 -16 352
WIRE 272 352 256 352
WIRE 544 352 528 352
WIRE 800 352 784 352
WIRE 1072 352 1056 352
WIRE 1088 352 1072 352
WIRE -1056 384 -1056 240
WIRE -816 384 -816 352
WIRE -784 384 -816 384
WIRE -544 384 -544 352
WIRE -512 384 -544 384
WIRE -272 384 -272 352
WIRE -240 384 -272 384
WIRE 0 384 0 352
WIRE 32 384 0 384
WIRE 272 384 272 352
WIRE 304 384 272 384
WIRE 544 384 544 352
WIRE 576 384 544 384
WIRE 800 384 800 352
WIRE 832 384 800 384
WIRE 1440 480 1440 384
WIRE 1296 560 1264 560
WIRE 1536 576 1488 576
WIRE 1296 592 1264 592
WIRE -816 672 -832 672
WIRE -544 672 -560 672
WIRE -272 672 -288 672
WIRE 0 672 -16 672
WIRE 272 672 256 672
WIRE 544 672 528 672
WIRE 800 672 784 672
WIRE 1088 672 1056 672
WIRE -1056 704 -1072 704
WIRE -816 704 -816 672
WIRE -784 704 -816 704
WIRE -544 704 -544 672
WIRE -512 704 -544 704
WIRE -272 704 -272 672
WIRE -240 704 -272 704
WIRE 0 704 0 672
WIRE 32 704 0 704
WIRE 272 704 272 672
WIRE 304 704 272 704
WIRE 544 704 544 672
WIRE 576 704 544 704
WIRE 800 704 800 672
WIRE 832 704 800 704
WIRE 1440 752 1440 672
WIRE 1296 832 1264 832
WIRE 1536 848 1488 848
WIRE 1296 864 1264 864
WIRE 1088 880 1088 672
WIRE 1088 880 -1056 880
WIRE -816 992 -832 992
WIRE -544 992 -560 992
WIRE -272 992 -288 992
WIRE 0 992 -16 992
WIRE 272 992 256 992
WIRE 544 992 528 992
WIRE 800 992 784 992
WIRE 1072 992 1056 992
WIRE 1088 992 1072 992
WIRE -1056 1024 -1056 880
WIRE -816 1024 -816 992
WIRE -784 1024 -816 1024
WIRE -544 1024 -544 992
WIRE -512 1024 -544 1024
WIRE -272 1024 -272 992
WIRE -240 1024 -272 1024
WIRE 0 1024 0 992
WIRE 32 1024 0 1024
WIRE 272 1024 272 992
WIRE 304 1024 272 1024
WIRE 544 1024 544 992
WIRE 576 1024 544 1024
WIRE 800 1024 800 992
WIRE 832 1024 800 1024
FLAG -944 -16 VDD
IOPIN -944 -16 In
FLAG -944 144 Clock
IOPIN -944 144 In
FLAG -1072 64 B1
IOPIN -1072 64 In
FLAG 1264 592 B1
FLAG 1264 560 B1Di
FLAG 1344 480 VDD
FLAG 1264 864 B0
FLAG 1264 832 B0Di
FLAG 1344 752 VDD
FLAG 1440 944 VDD
FLAG 1536 576 S1
IOPIN 1536 576 Out
FLAG 1536 848 S0
IOPIN 1536 848 Out
FLAG -672 -16 VDD
FLAG -672 144 Clock
FLAG -400 -16 VDD
FLAG -400 144 Clock
FLAG -128 -16 VDD
FLAG -128 144 Clock
FLAG 144 -16 VDD
FLAG 144 144 Clock
FLAG 416 -16 VDD
FLAG 416 144 Clock
FLAG 944 -16 VDD
FLAG 944 144 Clock
FLAG -944 304 VDD
FLAG -944 464 Clock
FLAG -672 304 VDD
FLAG -672 464 Clock
FLAG -400 304 VDD
FLAG -400 464 Clock
FLAG -128 304 VDD
FLAG -128 464 Clock
FLAG 144 304 VDD
FLAG 144 464 Clock
FLAG 416 304 VDD
FLAG 416 464 Clock
FLAG 944 304 VDD
FLAG 944 464 Clock
FLAG 1072 352 B1D
FLAG -944 624 VDD
FLAG -944 784 Clock
FLAG -672 624 VDD
FLAG -672 784 Clock
FLAG -400 624 VDD
FLAG -400 784 Clock
FLAG -128 624 VDD
FLAG -128 784 Clock
FLAG 144 624 VDD
FLAG 144 784 Clock
FLAG 416 624 VDD
FLAG 416 784 Clock
FLAG 944 624 VDD
FLAG 944 784 Clock
FLAG -944 944 VDD
FLAG -944 1104 Clock
FLAG -1072 704 B0
IOPIN -1072 704 In
FLAG -672 944 VDD
FLAG -672 1104 Clock
FLAG -400 944 VDD
FLAG -400 1104 Clock
FLAG -128 944 VDD
FLAG -128 1104 Clock
FLAG 144 944 VDD
FLAG 144 1104 Clock
FLAG 416 944 VDD
FLAG 416 1104 Clock
FLAG 944 944 VDD
FLAG 944 1104 Clock
FLAG 1072 992 B0D
FLAG 688 -16 VDD
FLAG 688 144 Clock
FLAG 688 304 VDD
FLAG 688 464 Clock
FLAG 688 624 VDD
FLAG 688 784 Clock
FLAG 688 944 VDD
FLAG 688 1104 Clock
FLAG 1104 336 VDD
FLAG 1104 976 VDD
FLAG 1136 992 B0Di
FLAG 1136 352 B1Di
FLAG 1536 288 S2
IOPIN 1536 288 Out
FLAG 1264 304 B1
FLAG 1264 272 B1Di
FLAG 1344 192 VDD
SYMBOL Adderbit 1312 656 R0
SYMATTR InstName X4
SYMBOL Adderbit 1312 928 R0
SYMATTR InstName X5
SYMBOL DFF -1024 112 R0
SYMATTR InstName X6
SYMBOL DFF -752 112 R0
SYMATTR InstName X7
SYMBOL DFF -480 112 R0
SYMATTR InstName X8
SYMBOL DFF -208 112 R0
SYMATTR InstName X9
SYMBOL DFF 64 112 R0
SYMATTR InstName X10
SYMBOL DFF 336 112 R0
SYMATTR InstName X11
SYMBOL DFF 864 112 R0
SYMATTR InstName X12
SYMBOL DFF -1024 432 R0
SYMATTR InstName X13
SYMBOL DFF -752 432 R0
SYMATTR InstName X14
SYMBOL DFF -480 432 R0
SYMATTR InstName X15
SYMBOL DFF -208 432 R0
SYMATTR InstName X16
SYMBOL DFF 64 432 R0
SYMATTR InstName X19
SYMBOL DFF 336 432 R0
SYMATTR InstName X20
SYMBOL DFF 864 432 R0
SYMATTR InstName X21
SYMBOL DFF -1024 752 R0
SYMATTR InstName X22
SYMBOL DFF -752 752 R0
SYMATTR InstName X23
SYMBOL DFF -480 752 R0
SYMATTR InstName X24
SYMBOL DFF -208 752 R0
SYMATTR InstName X25
SYMBOL DFF 64 752 R0
SYMATTR InstName X26
SYMBOL DFF 336 752 R0
SYMATTR InstName X27
SYMBOL DFF 864 752 R0
SYMATTR InstName X28
SYMBOL DFF -1024 1072 R0
SYMATTR InstName X29
SYMBOL DFF -752 1072 R0
SYMATTR InstName X30
SYMBOL DFF -480 1072 R0
SYMATTR InstName X31
SYMBOL DFF -208 1072 R0
SYMATTR InstName X32
SYMBOL DFF 64 1072 R0
SYMATTR InstName X33
SYMBOL DFF 336 1072 R0
SYMATTR InstName X34
SYMBOL DFF 864 1072 R0
SYMATTR InstName X35
SYMBOL DFF 608 112 R0
SYMATTR InstName X36
SYMBOL DFF 608 432 R0
SYMATTR InstName X37
SYMBOL DFF 608 752 R0
SYMATTR InstName X38
SYMBOL DFF 608 1072 R0
SYMATTR InstName X39
SYMBOL inverter 1088 352 R0
SYMATTR InstName X1
SYMBOL inverter 1088 992 R0
SYMATTR InstName X2
SYMBOL Adderbit 1312 368 R0
SYMATTR InstName X3
