Version 4
SHEET 1 1708 3024
WIRE -2160 144 -2256 144
WIRE -2032 144 -2096 144
WIRE -1056 144 -1152 144
WIRE -928 144 -992 144
WIRE -2688 224 -2816 224
WIRE -2496 224 -2624 224
WIRE -2400 224 -2496 224
WIRE -2256 224 -2256 144
WIRE -2256 224 -2320 224
WIRE -2160 224 -2256 224
WIRE -2032 224 -2032 144
WIRE -2032 224 -2080 224
WIRE -1584 224 -1712 224
WIRE -1392 224 -1520 224
WIRE -1296 224 -1392 224
WIRE -1152 224 -1152 144
WIRE -1152 224 -1216 224
WIRE -1056 224 -1152 224
WIRE -928 224 -928 144
WIRE -928 224 -976 224
WIRE -3200 240 -3200 224
WIRE -2816 272 -2816 224
WIRE -1712 272 -1712 224
WIRE -2192 304 -2192 288
WIRE -1088 304 -1088 288
WIRE -2256 336 -2256 224
WIRE -2224 336 -2256 336
WIRE -1152 336 -1152 224
WIRE -1120 336 -1152 336
WIRE -3200 352 -3200 320
WIRE -3200 352 -3312 352
WIRE -3056 352 -3200 352
WIRE -3040 352 -3056 352
WIRE -2032 352 -2032 224
WIRE -2032 352 -2064 352
WIRE -1904 352 -2032 352
WIRE -928 352 -928 224
WIRE -928 352 -960 352
WIRE -800 352 -928 352
WIRE -3312 368 -3312 352
WIRE -3200 368 -3200 352
WIRE -2224 368 -2256 368
WIRE -1120 368 -1152 368
WIRE -2816 400 -2816 352
WIRE -2816 400 -2848 400
WIRE -2224 400 -2304 400
WIRE -1712 400 -1712 352
WIRE -1712 400 -1744 400
WIRE -1120 400 -1200 400
WIRE -2032 416 -2064 416
WIRE -1904 416 -2032 416
WIRE -928 416 -960 416
WIRE -800 416 -928 416
WIRE -2224 432 -2256 432
WIRE -1120 432 -1152 432
WIRE -2816 448 -2816 400
WIRE -1712 448 -1712 400
WIRE -3312 464 -3312 448
WIRE -3200 464 -3200 448
WIRE -1088 480 -1088 464
WIRE -2816 560 -2816 528
WIRE -2704 560 -2816 560
WIRE -2480 560 -2640 560
WIRE -2400 560 -2480 560
WIRE -2256 560 -2256 432
WIRE -2256 560 -2320 560
WIRE -2160 560 -2256 560
WIRE -2032 560 -2032 416
WIRE -2032 560 -2080 560
WIRE -1712 560 -1712 528
WIRE -1600 560 -1712 560
WIRE -1376 560 -1536 560
WIRE -1296 560 -1376 560
WIRE -1152 560 -1152 432
WIRE -1152 560 -1216 560
WIRE -1056 560 -1152 560
WIRE -928 560 -928 416
WIRE -928 560 -976 560
WIRE -2256 640 -2256 560
WIRE -2160 640 -2256 640
WIRE -2032 640 -2032 560
WIRE -2032 640 -2096 640
WIRE -1152 640 -1152 560
WIRE -1056 640 -1152 640
WIRE -928 640 -928 560
WIRE -928 640 -992 640
FLAG -2192 288 vdd
FLAG -1904 352 vo1p
FLAG -1904 416 vo1n
FLAG -2496 224 vi1n
FLAG -2480 560 vi1p
FLAG -3200 464 vss
FLAG -3200 224 vdd
FLAG -3312 464 0
FLAG -3056 352 vmid
FLAG -2304 400 vmid
FLAG -2848 400 vmid
FLAG -2192 464 vss
FLAG -1088 288 vdd
FLAG -800 352 vo2p
FLAG -800 416 vo2n
FLAG -1392 224 vi2n
FLAG -1376 560 vi2p
FLAG -1200 400 vmid
FLAG -1744 400 vmid
FLAG -1088 480 vss
SYMBOL res -2304 208 R90
WINDOW 0 3 65 VBottom 0
WINDOW 3 32 56 VTop 0
SYMATTR InstName R9
SYMATTR Value 112.5k
SYMBOL res -2064 208 R90
WINDOW 0 3 65 VBottom 0
WINDOW 3 32 56 VTop 0
SYMATTR InstName R10
SYMATTR Value 112.5k
SYMBOL cap -2096 128 R90
WINDOW 0 0 32 VBottom 0
WINDOW 3 32 32 VTop 0
SYMATTR InstName C7
SYMATTR Value 0.5p
SYMBOL res -2304 576 M270
WINDOW 0 32 56 VTop 0
WINDOW 3 0 56 VBottom 0
SYMATTR InstName R11
SYMATTR Value 112.5k
SYMBOL res -2064 576 M270
WINDOW 0 32 56 VTop 0
WINDOW 3 0 56 VBottom 0
SYMATTR InstName R12
SYMATTR Value 112.5k
SYMBOL cap -2096 656 M270
WINDOW 0 32 32 VTop 0
WINDOW 3 0 32 VBottom 0
SYMATTR InstName C8
SYMATTR Value 0.5p
SYMBOL voltage -2816 256 R0
WINDOW 39 0 0 Left 0
WINDOW 3 28 105 Left 0
SYMATTR Value SINE(0 0.1 1000)
SYMATTR InstName V8
SYMBOL voltage -3200 224 R0
WINDOW 123 0 0 Left 0
WINDOW 39 43 53 Left 0
SYMATTR InstName V9
SYMATTR Value 2.5
SYMBOL voltage -3200 352 R0
WINDOW 123 0 0 Left 0
WINDOW 39 43 53 Left 0
SYMATTR InstName V3
SYMATTR Value 2.5
SYMBOL voltage -3312 352 R0
WINDOW 123 0 0 Left 0
WINDOW 39 43 53 Left 0
WINDOW 3 -88 57 Left 0
SYMATTR Value 0
SYMATTR InstName V4
SYMBOL cap -2624 208 R90
WINDOW 0 0 32 VBottom 0
WINDOW 3 32 32 VTop 0
SYMATTR InstName C10
SYMATTR Value 1µ
SYMBOL cap -2640 544 R90
WINDOW 0 0 32 VBottom 0
WINDOW 3 32 32 VTop 0
SYMATTR InstName C11
SYMATTR Value 1µ
SYMBOL voltage -2816 432 R0
WINDOW 39 0 0 Left 0
WINDOW 3 46 41 Left 0
SYMATTR Value SINE(0 0.1 1000)
SYMATTR InstName V1
SYMBOL diffamp -2160 384 R0
SYMATTR InstName U1
SYMBOL res -1200 208 R90
WINDOW 0 3 65 VBottom 0
WINDOW 3 32 56 VTop 0
SYMATTR InstName R1
SYMATTR Value 112.5k
SYMBOL res -960 208 R90
WINDOW 0 3 65 VBottom 0
WINDOW 3 32 56 VTop 0
SYMATTR InstName R2
SYMATTR Value 112.5k
SYMBOL cap -992 128 R90
WINDOW 0 0 32 VBottom 0
WINDOW 3 32 32 VTop 0
SYMATTR InstName C1
SYMATTR Value 0.5p
SYMBOL res -1200 576 M270
WINDOW 0 32 56 VTop 0
WINDOW 3 0 56 VBottom 0
SYMATTR InstName R3
SYMATTR Value 112.5k
SYMBOL res -960 576 M270
WINDOW 0 32 56 VTop 0
WINDOW 3 0 56 VBottom 0
SYMATTR InstName R4
SYMATTR Value 112.5k
SYMBOL cap -992 656 M270
WINDOW 0 32 32 VTop 0
WINDOW 3 0 32 VBottom 0
SYMATTR InstName C2
SYMATTR Value 0.5p
SYMBOL voltage -1712 256 R0
WINDOW 39 0 0 Left 0
WINDOW 3 28 105 Left 0
SYMATTR Value SINE(0 0.1 1000)
SYMATTR InstName V2
SYMBOL cap -1520 208 R90
WINDOW 0 0 32 VBottom 0
WINDOW 3 32 32 VTop 0
SYMATTR InstName C3
SYMATTR Value 1µ
SYMBOL cap -1536 544 R90
WINDOW 0 0 32 VBottom 0
WINDOW 3 32 32 VTop 0
SYMATTR InstName C4
SYMATTR Value 1µ
SYMBOL voltage -1712 432 R0
WINDOW 39 0 0 Left 0
WINDOW 3 46 41 Left 0
SYMATTR Value SINE(0 0.1 1000)
SYMATTR InstName V5
SYMBOL Opamps\\LTC1992 -1056 384 R0
SYMATTR InstName U2
TEXT -3328 592 Left 0 !.tran 0 1m 0 1u
TEXT -3328 552 Left 0 !.include diffamp.sub
TEXT -3328 624 Left 0 !.options plotwinsize=0
