Version 4
SHEET 1 2388 3980
WIRE 960 -160 832 -160
WIRE 128 -144 0 -144
WIRE 416 -144 288 -144
WIRE 832 -128 832 -160
WIRE 0 -112 0 -144
WIRE 416 -112 416 -144
WIRE 832 -16 832 -48
WIRE 0 0 0 -32
WIRE 416 0 416 -32
WIRE 656 64 608 64
WIRE 784 64 736 64
WIRE 832 64 784 64
WIRE 1104 64 912 64
WIRE -208 80 -256 80
WIRE -80 80 -128 80
WIRE -16 80 -80 80
WIRE 416 80 64 80
WIRE 608 80 608 64
WIRE -256 96 -256 80
WIRE 288 160 288 -144
WIRE 960 160 960 -160
WIRE 128 176 128 -144
WIRE 784 176 784 64
WIRE 928 176 784 176
WIRE -80 192 -80 80
WIRE 96 192 -80 192
WIRE 1104 192 1104 64
WIRE 1104 192 992 192
WIRE 240 208 160 208
WIRE 416 208 416 80
WIRE 416 208 336 208
WIRE 656 208 592 208
WIRE 928 208 736 208
WIRE -208 224 -256 224
WIRE 96 224 -128 224
WIRE 1104 224 1104 192
WIRE 416 240 416 208
WIRE 592 256 592 208
WIRE 256 272 256 256
WIRE -256 288 -256 224
WIRE 1104 336 1104 304
WIRE 416 368 416 320
WIRE 592 368 592 336
WIRE -256 400 -256 368
WIRE 960 448 960 224
WIRE 128 464 128 240
WIRE 288 464 288 256
WIRE 128 576 128 544
WIRE 288 576 288 544
WIRE 960 576 960 528
FLAG 416 368 0
FLAG -256 96 0
FLAG 0 0 0
FLAG 128 576 0
FLAG -256 400 0
FLAG 416 80 out
FLAG 1104 336 0
FLAG 608 80 0
FLAG 832 -16 0
FLAG 960 576 0
FLAG 592 368 0
FLAG 1104 64 out1
FLAG 256 272 0
FLAG 416 0 0
FLAG 288 576 0
SYMBOL Opamps\\LT1037A 128 144 R0
SYMATTR InstName U1
SYMBOL res 400 224 R0
SYMATTR InstName R1
SYMATTR Value 1k
SYMBOL res -32 96 R270
WINDOW 0 32 56 VTop 0
WINDOW 3 0 56 VBottom 0
SYMATTR InstName R4
SYMATTR Value 10k
SYMBOL res -224 96 R270
WINDOW 0 32 56 VTop 0
WINDOW 3 0 56 VBottom 0
SYMATTR InstName R5
SYMATTR Value 2.5k
SYMBOL res -224 240 R270
WINDOW 0 32 56 VTop 0
WINDOW 3 0 56 VBottom 0
SYMATTR InstName R6
SYMATTR Value 100
SYMBOL voltage 0 -128 R0
SYMATTR InstName V1P
SYMATTR Value 15V
SYMBOL voltage 128 448 R0
SYMATTR InstName V1N
SYMATTR Value -15V
SYMBOL voltage -256 272 R0
WINDOW 123 0 0 Left 0
WINDOW 39 0 0 Left 0
SYMATTR InstName V3
SYMATTR Value PULSE(-2 2 0 10n 10n 5u 10u 2)
SYMBOL res 1088 208 R0
SYMATTR InstName R7
SYMATTR Value 1k
SYMBOL res 816 80 R270
WINDOW 0 32 56 VTop 0
WINDOW 3 0 56 VBottom 0
SYMATTR InstName R10
SYMATTR Value 10k
SYMBOL res 640 80 R270
WINDOW 0 32 56 VTop 0
WINDOW 3 0 56 VBottom 0
SYMATTR InstName R11
SYMATTR Value 2.5k
SYMBOL res 640 224 R270
WINDOW 0 32 56 VTop 0
WINDOW 3 0 56 VBottom 0
SYMATTR InstName R12
SYMATTR Value 100
SYMBOL voltage 832 -144 R0
SYMATTR InstName V20P
SYMATTR Value 15V
SYMBOL voltage 960 432 R0
SYMATTR InstName V20N
SYMATTR Value -15V
SYMBOL voltage 592 240 R0
WINDOW 123 0 0 Left 0
WINDOW 39 0 0 Left 0
SYMATTR InstName V6
SYMATTR Value PULSE(-2 2 0 10n 10n 5u 10u 2)
SYMBOL voltage 416 -128 R0
SYMATTR InstName V10P
SYMATTR Value 15V
SYMBOL voltage 288 448 R0
SYMATTR InstName V10N
SYMATTR Value -15V
SYMBOL xopps 288 208 R0
WINDOW 3 16 89 Left 0
SYMATTR Value IQ=3m
SYMATTR InstName U1ps
SYMBOL OPAMP5 960 128 R0
SYMATTR InstName U2
SYMATTR SpiceModel level2
TEXT -240 -192 Left 0 !.tran 30u
TEXT 144 304 Left 0 ;Enhanced\nModel
TEXT -248 -448 Left 0 ;USAGE OF LOAD CURRENT MIRROR "xopps"                       Helmut Sennewald  1/3/2004\n \nThis schematic sshows how to add real power supply current behaviour to the  LT opamp LT1037 opamp model.\nThe LT1037 model has some bad spikes in its supply current and also doesn't draw the load current from the supplies.\nAll these drawbacks can be solved by the "xopps" subcircuit. \nIt draws the quiescent current(3mA) as well as the load current without changing  the circuit performance of the LT1037 in any way. \nThe LT1037 together with "xopps" match very well the OP37 model from Analog Devices.\n"xopps"  can be used with any opamp.
RECTANGLE Normal 384 352 64 128
