Version 4
SHEET 1 1848 728
WIRE 384 208 320 208
WIRE 736 208 384 208
WIRE 736 240 672 240
WIRE 992 256 912 256
WIRE 1312 256 1248 256
WIRE 1488 256 1312 256
WIRE 320 272 320 208
WIRE 736 272 608 272
WIRE 1488 288 1424 288
WIRE 1776 304 1664 304
WIRE 1792 304 1776 304
WIRE 992 320 992 256
WIRE 1488 320 1360 320
WIRE 608 336 608 272
WIRE 1360 384 1360 320
WIRE 320 416 320 352
WIRE 992 432 992 400
WIRE 1104 432 992 432
WIRE 992 464 992 432
WIRE 608 480 608 416
WIRE 1360 528 1360 464
WIRE 736 560 688 560
WIRE 736 592 672 592
WIRE 992 608 992 544
WIRE 992 608 912 608
WIRE 512 624 464 624
WIRE 736 624 576 624
FLAG 320 416 0
FLAG 384 208 Vin
FLAG 608 480 0
FLAG 608 272 clock
FLAG 992 256 Voutt
FLAG 672 240 0
FLAG 992 608 Voutb
FLAG 672 592 0
FLAG 688 560 Vin
FLAG 1104 432 Vout_2_path
FLAG 464 624 clock
FLAG 1360 528 0
FLAG 1424 288 0
FLAG 1312 256 Vin
FLAG 1776 304 Vout_2fs
SYMBOL voltage 320 256 R0
WINDOW 123 0 0 Left 0
WINDOW 39 0 0 Left 0
SYMATTR InstName Vin
SYMATTR Value SINE(0.5 0.5 3MEG)
SYMBOL voltage 608 320 R0
WINDOW 0 36 42 Left 0
WINDOW 3 35 69 Left 0
WINDOW 123 0 0 Left 0
WINDOW 39 0 0 Left 0
SYMATTR InstName Vclock
SYMATTR Value PULSE(0 1 0 0 0 4.9n 10n)
SYMBOL SpecialFunctions\\sample 816 240 R0
WINDOW 3 -35 112 Left 0
SYMATTR InstName A1
SYMATTR Value REF=0.5
SYMBOL SpecialFunctions\\sample 816 592 R0
WINDOW 3 -42 115 Left 0
SYMATTR InstName A2
SYMATTR Value REF=0.5
SYMBOL res 976 304 R0
SYMATTR InstName R1
SYMATTR Value 1MEG
SYMBOL res 976 448 R0
SYMATTR InstName R2
SYMATTR Value 1MEG
SYMBOL Digital\\inv 512 560 R0
SYMATTR InstName A3
SYMBOL voltage 1360 368 R0
WINDOW 0 36 42 Left 0
WINDOW 3 35 69 Left 0
WINDOW 123 0 0 Left 0
WINDOW 39 0 0 Left 0
SYMATTR InstName Vclock1
SYMATTR Value PULSE(0 1 0 0 0 2.4n 5n)
SYMBOL SpecialFunctions\\sample 1568 288 R0
WINDOW 3 -35 112 Left 0
SYMATTR InstName A4
SYMATTR Value REF=0.5
TEXT 920 144 Left 0 !.tran 0 500n 0 .1n uic
TEXT 920 176 Left 0 !.model switmod SW\n.options plotwinsize=0
