* Predictive Technology Model Beta Version
* 90nm NMOS SPICE Parametersv (normal one)
*
*$
.subckt nmos d g s sub params:
+ l=100u w=100u m=1 ad=0 as=0 pd=0 ps=0 nrd=0 nrs=0 nrg=0 nrb=0
M d g s sub nmos
+ l = { l }
+ w = { w }
+ m = { m }
+ ad = { ad }
+ as = { as }
+ pd = { pd }
+ ps = { ps }
+ nrd = { nrd }
+ nrs = { nrs }
+ nrg = { nrg }
+ nrb = { nrb }
.ends
*$
.model n90 nmos 
*+ binflag = 0 
+ mobmod = 1 
+ capmod = 2 
+ nqsmod = 0 
+ vth0 = 0.2607 
+ nch = 9.7000000e+17 
+ nlx = 4.8000000e-08 
+ k1 = 0.3950000 
+ k2 = 1.0000000e-02 
+ k3 = 0.00 
+ k3b = 0.00 
+ w0 = 0.00 
+ dvt0w = 0.00 
+ dvt1w = 0.00 
+ dvt2w = 0.00 
+ dvt0 = 1.0000000 
+ dvt1 = 0.4000000 
+ dvt2 = 0.1500000 
+ eta0 = 0.1500000 
+ etab = 0.00 
+ dsub = 0.6000000 
+ ua = -6.0000000e-10 
+ ub = 8.0000000e-19 
+ uc = -2.9999999e-11 
+ a0 = 1.1000000 
+ ags = -1.0000000e-02 
+ b0 = 0.00 
+ b1 = 0.00 
+ keta = 4.0000000e-02 
+ voff = -2.9999999e-02 
+ vsat = 1.1000000e+05 
+ a1 = 0.00 
+ a2 = 1.0000000 
+ rdsw = 180 
+ prwg = 0.00 
+ prwb = 0.00 
+ wr = 1.0000000 
+ nfactor = 1.5000000 
+ cit = 0.00 
+ cdsc = 0.00 
+ cdscd = 0.00 
+ cdscb = 0.00 
+ pclm = 0.1000000 
+ pdiblc1 = 1.2000000e-02 
+ pdiblc2 = 7.5000000e-03 
+ pdiblcb = -1.3500000e-02 
+ drout = 2.0000000 
+ pscbe1 = 8.6600000e+08 
+ pscbe2 = 1.0000000e-20 
+ pvag = -0.2800000 
+ alpha0 = 0.00 
+ beta0 = 30.0000000 
+ ckappa = 0.28 
+ cf = 1.177e-10 
+ clc = 1.0000000e-07 
+ cle = 0.6000000 
+ cgsl = 0.582e-10 
+ cgdl = 0.582e-10 
+ wint = { (0.00-(0.00/2)) } 
+ wln = 0.00 
+ ww = 0.00 
+ wl = 0.00 
+ wwn = 0.00 
+ wwl = 0.00 
+ dwg = 0.00 
+ dwb = 0.00 
+ lint = { (1.5e-08-(0.00/2)) } 
+ ll = 0.00 
+ lln = 1.0000000 
+ lw = 0.00 
+ lwn = 1.0000000 
+ lwl = 0.00 
+ dlc = 2e-08 
+ dwc = 0 
+ kt1 = -0.3700000 
+ kt1l = 4.0000000e-09 
+ kt2 = -4.0000000e-02 
+ ute = -1.4800000 
+ ua1 = 9.5829000e-10 
+ ub1 = -3.3473000e-19 
+ uc1 = 0.00 
+ at = 5.5000000e+04 
+ prt = 0.00 
+ xti = 3.0 
+ lmin = 1.0e-7 
+ lmax = 1.0e-7 
+ wmin = 1.0e-7 
+ wmax = 1.0e-4 
+ binunit = 2 
+ elm = 5 
*+ temp = 27.0 
+ xpart = 1 
+ level = 7 
+ js = 1.50e-08 
+ jsw = 2.50e-13 
+ n = 1.0 
+ cj = 0.0015 
+ cjsw = 2e-10 
+ mj = 0.72 
+ mjsw = 0.37 
+ pb = 1.25 
+ pbsw = 0.773 
*+ rd = { ((nrd*7)+0) } 
*+ rs = { ((nrs*7)+0) } 
+ xj = 4.0000000e-08 
+ ngate = 5.0000000e+20 
+ tox = 2.5e-09 
+ cgbo = 0.0e+00 
+ cgdo = 3.493e-10 
+ cgso = 3.493e-10 
*+ kp = { ((3.453e-11*1.7999999e-02)/2.5e-09) } 
+ delta = 1.0000000e-02 
+ u0 = 1.7999999e-02 
*+ rb = { (nrb*7) } 
*+ rg = { (nrg*7) } 

*
* Predictive Technology Model Beta Version
* 90nm PMOS SPICE Parametersv (normal one)
*
*$
.subckt pmos d g s sub params:
+ l=100u w=100u m=1 ad=0 as=0 pd=0 ps=0 nrd=0 nrs=0 nrg=0 nrb=0
M d g s sub pmos
+ l = { l }
+ w = { w }
+ m = { m }
+ ad = { ad }
+ as = { as }
+ pd = { pd }
+ ps = { ps }
+ nrd = { nrd }
+ nrs = { nrs }
+ nrg = { nrg }
+ nrb = { nrb }
.ends
*$
.model p90 pmos 
*+ binflag = 0 
+ mobmod = 1 
+ capmod = 2 
+ nqsmod = 0 
+ vth0 = -0.303 
+ nch = 1.0400000e+18 
+ nlx = 7.5000000e-08 
+ k1 = 0.3910000 
+ k2 = 1.0000000e-02 
+ k3 = 0.00 
+ k3b = 0.00 
+ w0 = 0.00 
+ dvt0w = 0.00 
+ dvt1w = 0.00 
+ dvt2w = 0.00 
+ dvt0 = 2.6700001 
+ dvt1 = 0.5300000 
+ dvt2 = 5.0000000e-02 
+ eta0 = 0.2500000 
+ etab = 0.00 
+ dsub = 0.8000000 
+ ua = -5.0000000e-10 
+ ub = 1.5000000e-18 
+ uc = -2.9999999e-11 
+ a0 = 2.0000000 
+ ags = -0.1000000 
+ b0 = 0.00 
+ b1 = 0.00 
+ keta = 4.0000000e-02 
+ voff = -7.0000000e-02 
+ vsat = 1.0500000e+05 
+ a1 = 0.00 
+ a2 = 0.9900000 
+ rdsw = 300 
+ prwg = 0.00 
+ prwb = 0.00 
+ wr = 1.0000000 
+ nfactor = 1.5000000 
+ cit = 0.00 
+ cdsc = 0.00 
+ cdscd = 0.00 
+ cdscb = 0.00 
+ pclm = 0.1000000 
+ pdiblc1 = 1.2000000e-02 
+ pdiblc2 = 7.5000000e-03 
+ pdiblcb = -1.3500000e-02 
+ drout = 0.9000000 
+ pscbe1 = 8.6600000e+08 
+ pscbe2 = 1.0000000e-20 
+ pvag = -0.2800000 
+ alpha0 = 0.00 
+ beta0 = 30.0000000 
+ ckappa = 0.28 
+ cf = 1.177e-10 
+ clc = 5.4750000e-08 
+ cle = 6.4600000 
+ cgsl = 0.582e-10 
+ cgdl = 0.582e-10 
+ wint = { (0.00-(0.00/2)) } 
+ wln = 0.00 
+ ww = 0.00 
+ wl = 0.00 
+ wwn = 1.0000000 
+ wwl = 0.00 
+ dwg = 0.00 
+ dwb = 0.00 
+ lint = { (1.5e-08-(0.00/2)) } 
+ ll = 0.00 
+ lln = 1.0000000 
+ lw = 0.00 
+ lwn = 0.00 
+ lwl = 0.00 
+ dlc = 2e-08 
+ dwc = 0 
+ kt1 = -0.3400000 
+ kt1l = 4.0000000e-09 
+ kt2 = -5.2700000e-02 
+ ute = -1.2300000 
+ ua1 = -8.6300000e-10 
+ ub1 = 2.0000001e-18 
+ uc1 = 0.00 
+ at = 0.00 
+ prt = 0.00 
+ xti = 3.0 
+ lmin = 1.0e-7 
+ lmax = 1.0e-7 
+ wmin = 1.0e-7 
+ wmax = 1.0e-4 
+ binunit = 2 
+ elm = 5 
*+ temp = 27.0 
+ xpart = 1 
+ level = 7 
+ js = 2.50e-08 
+ jsw = 4.00e-13 
+ n = 1.0 
+ cj = 0.0015 
+ cjsw = 2e-10 
+ mj = 0.7175511 
+ mjsw = 0.3706993 
+ pb = 1.24859 
+ pbsw = 0.7731149 
*+ rd = { ((nrd*7)+0) } 
*+ rs = { ((nrs*7)+0) } 
+ xj = 4.0000000e-08 
+ ngate = 5.0000000e+20 
+ tox = 2.5e-09 
+ cgbo = 0.0e+00 
+ cgdo = 3.49e-10 
+ cgso = 3.49e-10 
*+ kp = { ((3.453e-11*5.5000000e-03)/2.5e-09) } 
+ delta = 1.0100000e-02 
+ u0 = 5.5000000e-03 
*+ rb = { (nrb*7) } 
*+ rg = { (nrg*7) } 

*$
