Version 4
SHEET 1 880 1000
WIRE -496 112 -688 112
WIRE -464 112 -496 112
WIRE -80 112 -464 112
WIRE -48 112 -80 112
WIRE 384 112 -48 112
WIRE 416 112 384 112
WIRE -496 160 -496 112
WIRE -48 160 -48 112
WIRE 384 160 384 112
WIRE -576 208 -656 208
WIRE -544 208 -576 208
WIRE -464 208 -464 112
WIRE -464 208 -496 208
WIRE -80 208 -80 112
WIRE -48 208 -80 208
WIRE 32 208 0 208
WIRE 336 208 32 208
WIRE 416 208 416 112
WIRE 416 208 384 208
WIRE -496 288 -496 256
WIRE -48 288 -48 256
WIRE 32 288 32 208
WIRE 32 288 -48 288
WIRE 384 320 384 256
WIRE 512 320 384 320
WIRE -576 336 -576 208
WIRE -544 336 -576 336
WIRE -464 336 -464 208
WIRE -464 336 -496 336
WIRE -496 432 -496 384
WIRE -304 432 -496 432
WIRE -496 480 -496 432
WIRE -496 480 -592 480
WIRE -432 480 -496 480
WIRE -48 480 -48 288
WIRE -48 480 -144 480
WIRE 32 480 -48 480
WIRE 384 480 384 320
WIRE 384 480 288 480
WIRE 464 480 384 480
WIRE -592 512 -592 480
WIRE -432 512 -432 480
WIRE -144 512 -144 480
WIRE 32 512 32 480
WIRE 288 512 288 480
WIRE 464 512 464 480
WIRE -640 560 -688 560
WIRE -528 560 -592 560
WIRE -432 560 -528 560
WIRE -336 560 -384 560
WIRE -224 560 -240 560
WIRE -192 560 -224 560
WIRE -32 560 -144 560
WIRE 32 560 -32 560
WIRE 112 560 80 560
WIRE 128 560 112 560
WIRE 208 560 192 560
WIRE 240 560 208 560
WIRE 400 560 288 560
WIRE 464 560 400 560
WIRE 560 560 512 560
WIRE -592 640 -592 608
WIRE -496 640 -592 640
WIRE -432 640 -432 608
WIRE -432 640 -496 640
WIRE -144 640 -144 608
WIRE -64 640 -144 640
WIRE 32 640 32 608
WIRE 32 640 -64 640
WIRE 288 640 288 608
WIRE 288 640 32 640
WIRE 368 640 288 640
WIRE 464 640 464 608
WIRE 464 640 368 640
WIRE -336 672 -336 560
WIRE -336 672 -688 672
WIRE -496 704 -496 640
WIRE -64 704 -64 640
WIRE 368 704 368 640
WIRE -528 752 -528 560
WIRE -496 752 -528 752
WIRE -304 752 -304 432
WIRE -304 752 -448 752
WIRE -160 752 -304 752
WIRE -112 752 -160 752
WIRE -32 752 -32 560
WIRE -32 752 -64 752
WIRE 320 752 288 752
WIRE 400 752 400 560
WIRE 400 752 368 752
WIRE -160 832 -160 752
WIRE 288 832 288 752
WIRE 288 832 -160 832
WIRE -528 864 -528 752
WIRE -528 864 -672 864
WIRE -496 864 -496 800
WIRE -496 864 -528 864
WIRE -64 864 -64 800
WIRE -64 864 -496 864
WIRE -32 864 -32 752
WIRE -32 864 -64 864
WIRE 368 864 368 800
WIRE 368 864 -32 864
WIRE 400 864 400 752
WIRE 400 864 368 864
FLAG 112 560 Om
FLAG -224 560 Op
FLAG 208 560 Vcmref
FLAG -656 208 Vbiasp
IOPIN -656 208 BiDir
FLAG -688 560 Op
IOPIN -688 560 BiDir
FLAG -688 672 Om
IOPIN -688 672 BiDir
FLAG 560 560 Vcmref
IOPIN 560 560 BiDir
FLAG -688 112 VDD
IOPIN -688 112 BiDir
FLAG -672 864 VSS
IOPIN -672 864 BiDir
FLAG 512 320 VpCM
IOPIN 512 320 BiDir
SYMBOL nmosb 80 512 M0
SYMATTR InstName M1
SYMATTR Value n90
SYMATTR Value2 l=0.5u w=3.5u m=1
SYMBOL nmosb -192 512 R0
SYMATTR InstName M2
SYMATTR Value n90
SYMATTR Value2 l=0.5u w=3.5u m=1
SYMBOL nmosb -112 704 R0
WINDOW 0 105 48 Left 0
WINDOW 3 103 84 Left 0
SYMATTR InstName M3
SYMATTR Value n90
SYMATTR Value2 l=0.5u w=3.9u m=1
SYMBOL nmosb -448 704 M0
WINDOW 0 -41 8 Left 0
WINDOW 3 -40 31 Left 0
SYMATTR InstName M4
SYMATTR Value n90
SYMATTR Value2 l=0.5u w=3.9u m=1
SYMBOL nmosb -384 512 M0
SYMATTR InstName M5
SYMATTR Value n90
SYMATTR Value2 l=0.5u w=3.5u m=1
SYMBOL nmosb -640 512 R0
SYMATTR InstName M6
SYMATTR Value n90
SYMATTR Value2 l=0.5u w=3.5u m=1
SYMBOL pmosb -544 160 R0
WINDOW 0 -32 -13 Left 0
WINDOW 3 -33 13 Left 0
SYMATTR InstName M7
SYMATTR Value p90
SYMATTR Value2 l=0.5u w=6.6u m=2
SYMBOL pmosb 0 160 M0
SYMATTR InstName M8
SYMATTR Value p90
SYMATTR Value2 l=0.5u w=25u m=1
SYMBOL pmosb 336 160 R0
SYMATTR InstName M9
SYMATTR Value p90
SYMATTR Value2 l=0.5u w=25u m=1
SYMBOL nmosb 512 512 M0
SYMATTR InstName M10
SYMATTR Value n90
SYMATTR Value2 l=0.5u w=3.5u m=1
SYMBOL nmosb 240 512 R0
SYMATTR InstName M11
SYMATTR Value n90
SYMATTR Value2 l=0.5u w=3.5u m=1
SYMBOL nmosb 320 704 R0
WINDOW 0 105 48 Left 0
WINDOW 3 103 84 Left 0
SYMATTR InstName M12
SYMATTR Value n90
SYMATTR Value2 l=0.5u w=3.9u m=1
SYMBOL pmosb -544 288 R0
SYMATTR InstName M13
SYMATTR Value p90
SYMATTR Value2 l=0.25u w=33u m=2
