Version 4
SHEET 1 1072 888
WIRE -256 128 -256 112
WIRE 80 128 80 112
WIRE 416 128 416 112
WIRE -256 160 -256 128
WIRE 80 160 80 128
WIRE 416 160 416 128
WIRE -368 192 -400 192
WIRE -336 192 -368 192
WIRE -32 192 -64 192
WIRE 0 192 -32 192
WIRE 304 192 272 192
WIRE 336 192 304 192
WIRE -368 224 -400 224
WIRE -336 224 -368 224
WIRE -32 224 -64 224
WIRE 0 224 -32 224
WIRE 304 224 272 224
WIRE 336 224 304 224
WIRE -368 256 -400 256
WIRE -336 256 -368 256
WIRE -32 256 -64 256
WIRE 0 256 -32 256
WIRE 304 256 272 256
WIRE 336 256 304 256
WIRE -176 272 -208 272
WIRE 160 272 128 272
WIRE 496 272 464 272
WIRE -368 288 -400 288
WIRE -336 288 -368 288
WIRE -32 288 -64 288
WIRE 0 288 -32 288
WIRE 304 288 272 288
WIRE 336 288 304 288
WIRE -464 320 -496 320
WIRE -368 320 -400 320
WIRE -336 320 -368 320
WIRE -32 320 -64 320
WIRE 0 320 -32 320
WIRE 304 320 272 320
WIRE 336 320 304 320
WIRE -464 352 -496 352
WIRE -368 352 -400 352
WIRE -336 352 -368 352
WIRE -32 352 -64 352
WIRE 0 352 -32 352
WIRE 304 352 272 352
WIRE 336 352 304 352
WIRE -256 416 -256 384
WIRE 80 416 80 384
WIRE 416 416 416 384
WIRE -464 432 -496 432
WIRE -256 432 -256 416
WIRE 80 432 80 416
WIRE 416 432 416 416
WIRE -464 464 -496 464
WIRE -256 496 -256 480
WIRE 80 496 80 480
WIRE 416 496 416 480
WIRE -256 528 -256 496
WIRE 80 528 80 496
WIRE 416 528 416 496
WIRE -368 560 -400 560
WIRE -336 560 -368 560
WIRE -32 560 -64 560
WIRE 0 560 -32 560
WIRE 304 560 272 560
WIRE 336 560 304 560
WIRE -368 592 -400 592
WIRE -336 592 -368 592
WIRE -32 592 -64 592
WIRE 0 592 -32 592
WIRE 304 592 272 592
WIRE 336 592 304 592
WIRE -368 624 -400 624
WIRE -336 624 -368 624
WIRE -32 624 -64 624
WIRE 0 624 -32 624
WIRE 304 624 272 624
WIRE 336 624 304 624
WIRE -176 640 -208 640
WIRE 160 640 128 640
WIRE 496 640 464 640
WIRE -368 656 -400 656
WIRE -336 656 -368 656
WIRE -32 656 -64 656
WIRE 0 656 -32 656
WIRE 304 656 272 656
WIRE 336 656 304 656
WIRE -368 688 -400 688
WIRE -336 688 -368 688
WIRE -32 688 -64 688
WIRE 0 688 -32 688
WIRE 304 688 272 688
WIRE 336 688 304 688
WIRE -368 720 -400 720
WIRE -336 720 -368 720
WIRE -32 720 -64 720
WIRE 0 720 -32 720
WIRE 304 720 272 720
WIRE 336 720 304 720
WIRE -256 784 -256 752
WIRE 80 784 80 752
WIRE 416 784 416 752
WIRE -256 800 -256 784
WIRE 80 800 80 784
WIRE 416 800 416 784
FLAG -496 432 A1
IOPIN -496 432 BiDir
FLAG -496 464 A0
IOPIN -496 464 BiDir
FLAG -368 320 A1
FLAG -368 352 A0
FLAG -368 288 VSS
FLAG -368 256 VSS
FLAG -368 224 VSS
FLAG -368 192 VDD
FLAG -176 272 K4
IOPIN -176 272 BiDir
FLAG -32 320 A1
FLAG -32 352 A0
FLAG -32 288 VSS
FLAG -32 256 VSS
FLAG -32 224 VDD
FLAG -32 192 VSS
FLAG 160 272 K5
IOPIN 160 272 BiDir
FLAG -368 688 A1
FLAG -368 720 A0
FLAG -368 656 VSS
FLAG -368 624 VDD
FLAG -368 592 VSS
FLAG -368 560 VSS
FLAG -176 640 K6
IOPIN -176 640 BiDir
FLAG -32 688 A1
FLAG -32 720 A0
FLAG -32 656 VDD
FLAG -32 624 VSS
FLAG -32 592 VSS
FLAG -32 560 VSS
FLAG 160 640 K7
IOPIN 160 640 BiDir
FLAG 304 320 A1
FLAG 304 352 A0
FLAG 304 288 VDD
FLAG 304 256 VDD
FLAG 304 224 VDD
FLAG 304 192 VSS
FLAG 496 272 K567
IOPIN 496 272 BiDir
FLAG 304 688 A1
FLAG 304 720 A0
FLAG 304 656 VDD
FLAG 304 624 VDD
FLAG 304 592 VSS
FLAG 304 560 VSS
FLAG 496 640 K67
IOPIN 496 640 BiDir
FLAG -496 320 VDD
IOPIN -496 320 BiDir
FLAG -496 352 VSS
IOPIN -496 352 BiDir
FLAG -256 128 VDD
FLAG 80 128 VDD
FLAG 416 128 VDD
FLAG 416 496 VDD
FLAG 80 496 VDD
FLAG -256 496 VDD
FLAG -256 416 VSS
FLAG 80 416 VSS
FLAG 416 416 VSS
FLAG 416 784 VSS
FLAG 80 784 VSS
FLAG -256 784 VSS
SYMBOL MUX41 -320 176 R0
SYMATTR InstName X1
SYMBOL MUX41 16 176 R0
SYMATTR InstName X2
SYMBOL MUX41 -320 544 R0
SYMATTR InstName X3
SYMBOL MUX41 16 544 R0
SYMATTR InstName X4
SYMBOL MUX41 352 176 R0
SYMATTR InstName X5
SYMBOL MUX41 352 544 R0
SYMATTR InstName X6
