Version 4
SHEET 1 1220 848
WIRE 176 288 176 368
WIRE 176 192 176 96
WIRE 320 192 320 96
WIRE 320 96 176 96
WIRE 320 272 320 368
WIRE 112 240 -48 240
WIRE -48 240 -48 272
WIRE -48 352 -48 368
FLAG 176 368 0
FLAG 320 368 0
FLAG -48 368 0
SYMBOL npn 112 192 R0
SYMATTR InstName Q1
SYMATTR Value Q2N6517
SYMBOL voltage 320 176 R0
SYMATTR InstName V1
SYMATTR Value 10
SYMBOL current -48 352 M180
WINDOW 0 24 88 Left 0
WINDOW 3 24 0 Left 0
SYMATTR InstName I1
SYMATTR Value 10µ
TEXT -32 80 Left 0 !.DC I1 1u 2m 1u
TEXT -104 552 Left 0 !*==============================================\n*NPN Trans Pinout: C,B,E\n*Copyright (c) 1996 MicroCode Engineering, Inc.\n*All Rights Reserved\n*\n*See other copyright notices at end of file.\n*==============================================*2N6517 MCE 5/11/95\n*Si 625mW 350V 500mA 200MHz pkg:TO-92 1,2,3\n.MODEL Q2N6517 NPN (IS=67.3F NF=1 BF=320 VAF=336 IKF=90M ISE=97.3P NE=2\n+ BR=4 NR=1 VAR=24 IKR=.135 RE=9.63 RB=38.5 RC=3.85 XTB=1.5\n+ CJE=58P VJE=1.1 MJE=.5 CJC=13.3P VJC=.3 MJC=.3 TF=795P TR=5.1U)
TEXT -40 -208 Left 0 ;Test Circuit For The B- And The H_fe-Curve Of A Bipolar Transistor\n \nB = Ic / Ib\n \nh_fe = d(Ic) / d(Ib)      d() is derivative\n \nUse "Plot Settinngs -> Open Plot Settings File"  to reload the B and H_fe curve\nafter each simulation run.
