Version 4
SHEET 1 1968 1356
WIRE -224 -304 -224 -272
WIRE -368 -304 -368 -272
WIRE -368 -384 -368 -432
WIRE -224 -384 -224 -432
WIRE -928 -160 -928 -96
WIRE -928 -16 -928 32
WIRE -752 -160 -928 -160
WIRE 288 16 288 144
WIRE 224 32 224 16
WIRE 144 16 144 128
WIRE 288 224 288 256
WIRE 144 128 144 272
WIRE -96 -160 -144 -160
WIRE -96 -32 -192 -32
WIRE -16 -208 -16 -320
WIRE -16 16 -16 32
WIRE 80 -224 80 -208
WIRE 80 -304 80 -320
WIRE 80 -320 -16 -320
WIRE -16 -320 -16 -336
WIRE 144 128 176 128
WIRE -944 624 -944 592
WIRE -944 592 -624 592
WIRE -944 704 -944 752
WIRE -480 592 -544 592
WIRE -112 576 -112 640
WIRE -64 576 -112 576
WIRE -64 544 -112 544
WIRE 0 448 -160 448
WIRE 32 560 112 560
WIRE 112 560 112 480
WIRE 112 480 240 480
WIRE -624 656 -624 592
WIRE -624 592 -544 592
WIRE -544 640 -544 592
WIRE -544 720 -544 752
WIRE -624 720 -624 752
WIRE 144 272 -288 272
WIRE -288 272 -288 -160
WIRE -288 -160 -672 -160
WIRE -144 -160 -144 -112
WIRE -192 96 -192 -32
WIRE 96 128 144 128
WIRE 48 224 48 192
WIRE 96 176 96 224
WIRE 48 112 48 96
WIRE 48 96 -32 96
WIRE -112 96 -192 96
WIRE -192 96 -192 128
WIRE -192 224 -192 192
WIRE 80 448 112 448
WIRE 112 448 112 480
WIRE -768 448 -928 448
WIRE -688 448 -544 448
WIRE -544 448 -544 592
FLAG -368 -272 0
FLAG -224 -272 0
FLAG -368 -432 Vcc
FLAG -224 -432 Vdd
FLAG -928 32 0
FLAG -928 -160 in
FLAG 224 32 0
FLAG 288 256 Vdd
FLAG -16 32 Vdd
FLAG -16 -336 Vcc
FLAG 176 128 out
FLAG -944 752 0
FLAG -480 592 tanh_out
FLAG -112 640 0
FLAG -160 448 in
FLAG 240 480 ota_out
FLAG -544 752 0
FLAG -624 752 0
FLAG -144 -112 0
FLAG 48 224 0
FLAG 96 224 0
FLAG -192 224 0
FLAG -112 544 0
FLAG -928 448 in
SYMBOL voltage -368 -400 R0
SYMATTR InstName V1
SYMATTR Value 15
SYMBOL voltage -224 -400 R0
SYMATTR InstName V2
SYMATTR Value -15
SYMBOL voltage -928 -112 R0
WINDOW 3 26 122 Left 0
WINDOW 123 26 94 Left 0
WINDOW 39 0 0 Left 0
SYMATTR Value SINE(0 1 10)
SYMATTR Value2 AC 1
SYMATTR InstName V3
SYMBOL res 272 128 R0
SYMATTR InstName R5
SYMATTR Value 15k
SYMBOL res 64 -320 R0
SYMATTR InstName R7
SYMATTR Value {Rbias}
SYMBOL res -768 -144 R270
WINDOW 0 32 56 VTop 0
WINDOW 3 0 56 VBottom 0
SYMATTR InstName Rgen
SYMATTR Value 10MEG
SYMBOL lm13700 -16 -96 R0
SYMATTR InstName U1
SYMBOL bi2 -944 624 R0
SYMATTR InstName B1
SYMATTR Value I=Ibias*tanh(20*0)
SYMBOL ota -32 560 R0
WINDOW 3 109 132 Center 0
WINDOW 123 109 160 Center 0
SYMATTR Value G={0.01}  Iout={Ibias}  Vhigh={14} Vlow={-14} ref={0}
SYMATTR Value2 Rout={7.5e3/Ibias} Cout={5p}
SYMATTR InstName A1
SYMBOL res -560 624 R0
SYMATTR InstName R4
SYMATTR Value {7.5e3/Ibias}
SYMBOL cap -640 656 R0
SYMATTR InstName C1
SYMATTR Value 5p
SYMBOL cap -208 128 R0
SYMATTR InstName C2
SYMATTR Value 100
SYMBOL e 48 96 M0
SYMATTR InstName E1
SYMATTR Value 1
SYMBOL res -128 112 R270
WINDOW 0 32 56 VTop 0
WINDOW 3 0 56 VBottom 0
SYMATTR InstName R8
SYMATTR Value 100
SYMBOL res -16 464 R270
WINDOW 0 32 56 VTop 0
WINDOW 3 0 56 VBottom 0
SYMATTR InstName R6
SYMATTR Value 10MEG
SYMBOL res -784 464 R270
WINDOW 0 32 56 VTop 0
WINDOW 3 0 56 VBottom 0
SYMATTR InstName R3
SYMATTR Value 10MEG
TEXT -944 -368 Left 0 !.op
TEXT -944 -320 Left 0 !.tran 50
TEXT -952 -264 Left 0 !.include ota.lib
TEXT -960 -552 Left 0 ;OUTPUT IMPEDANCE TEST
TEXT 96 -480 Left 0 !.param Ibias=0.5m\n.param Rbias=(15+15-1.5)/Ibias
TEXT -888 536 Left 0 ;B-SOURCE
TEXT -80 416 Left 0 ;A-OTA
TEXT -960 -488 Left 0 ;Vout = Vin * Rout/(Rout+Rgen)      \n \nRout =Rgen*Vout/ (Vin - Vout)
