Version 4
SHEET 1 1968 1356
WIRE -224 -304 -224 -272
WIRE -368 -304 -368 -272
WIRE -368 -384 -368 -432
WIRE -224 -384 -224 -432
WIRE -928 -160 -928 -96
WIRE -928 -16 -928 32
WIRE -96 -160 -928 -160
WIRE 288 16 288 96
WIRE 224 32 224 16
WIRE 144 16 144 80
WIRE 288 176 288 208
WIRE 144 192 144 224
WIRE -96 -32 -144 -32
WIRE -16 -208 -16 -320
WIRE -16 16 -16 32
WIRE 80 -224 80 -208
WIRE 80 -304 80 -320
WIRE 80 -320 -16 -320
WIRE -16 -320 -16 -336
WIRE 144 80 176 80
WIRE 144 80 144 112
WIRE -928 448 -928 416
WIRE -928 416 -768 416
WIRE -928 528 -928 576
WIRE -320 416 -320 480
WIRE -320 560 -320 576
WIRE -768 416 -608 416
WIRE -96 512 -96 576
WIRE 256 416 256 480
WIRE 256 560 256 576
WIRE -48 512 -96 512
WIRE -48 480 -96 480
WIRE -96 480 -96 416
WIRE -96 416 -144 416
WIRE 48 496 128 496
WIRE 128 496 128 416
WIRE 128 416 256 416
WIRE -608 480 -608 416
WIRE -608 416 -528 416
WIRE -528 464 -528 416
WIRE -528 544 -528 576
WIRE -608 544 -608 576
WIRE -528 416 -320 416
FLAG -368 -272 0
FLAG -224 -272 0
FLAG -368 -432 Vcc
FLAG -224 -432 Vdd
FLAG -928 32 0
FLAG -928 -160 in
FLAG 224 32 0
FLAG 144 224 0
FLAG -144 -32 0
FLAG 288 208 Vdd
FLAG -16 32 Vdd
FLAG -16 -336 Vcc
FLAG 176 80 out
FLAG -928 576 0
FLAG -320 576 0
FLAG -768 416 tanh_out
FLAG -96 576 0
FLAG 256 576 0
FLAG -144 416 in
FLAG 256 416 ota_out
FLAG -528 576 0
FLAG -608 576 0
SYMBOL voltage -368 -400 R0
SYMATTR InstName V1
SYMATTR Value 15
SYMBOL voltage -224 -400 R0
SYMATTR InstName V2
SYMATTR Value -15
SYMBOL voltage -928 -112 R0
WINDOW 3 26 122 Left 0
WINDOW 123 26 94 Left 0
WINDOW 39 0 0 Left 0
SYMATTR Value 0
SYMATTR Value2 AC 1
SYMATTR InstName V3
SYMBOL res 272 80 R0
SYMATTR InstName R5
SYMATTR Value 15k
SYMBOL res 128 96 R0
SYMATTR InstName R6
SYMATTR Value 1
SYMBOL res 64 -320 R0
SYMATTR InstName R7
SYMATTR Value {Rbias}
SYMBOL lm13700 -16 -96 R0
SYMATTR InstName U1
SYMBOL res -336 464 R0
SYMATTR InstName R2
SYMATTR Value 1
SYMBOL bi2 -928 448 R0
SYMATTR InstName B1
SYMATTR Value I=Ibias*tanh(20*V(in))
SYMBOL res 240 464 R0
SYMATTR InstName R3
SYMATTR Value 1
SYMBOL ota -16 496 R0
WINDOW 3 109 132 Center 0
WINDOW 123 109 160 Center 0
SYMATTR Value G={0.01}  Iout={Ibias}  Vhigh={14} Vlow={-14} ref={0}
SYMATTR Value2 Rout={7.5e3/Ibias} Cout={5p}
SYMATTR InstName A1
SYMBOL res -544 448 R0
SYMATTR InstName R4
SYMATTR Value {7.5e3/Ibias}
SYMBOL cap -624 480 R0
SYMATTR InstName C1
SYMATTR Value 5p
TEXT -944 -440 Left 0 !.op
TEXT -944 -392 Left 0 !.dc V3 -0.2 0.2 0.001
TEXT -952 -336 Left 0 !.include ota.lib
TEXT -936 -552 Left 0 ;TRANSCONDUCTANCE GAIN TEST\n \nIout = Ibias*tanh(20*V(in))
TEXT 96 -480 Left 0 !.param Ibias=0.5m\n.param Rbias=(15+15-1.5)/Ibias
TEXT -872 360 Left 0 ;B-SOURCE
TEXT -16 376 Left 0 ;A-OTA
