Version 4
SHEET 1 1680 680
WIRE 96 112 64 112
WIRE 480 112 432 112
WIRE 272 144 224 144
WIRE -96 176 -144 176
FLAG -144 176 fs
FLAG 224 144 f
FLAG 96 112 Ss
FLAG 480 112 S
SYMBOL Stepped_Sine1 -16 144 R0
WINDOW 39 -86 71 Left 0
SYMATTR SpiceLine fmul=sqrt(2) kd=0
SYMATTR InstName X1
SYMBOL Swept_Sine3 352 144 R0
WINDOW 39 -93 68 Left 0
SYMATTR SpiceLine fmul=sqrt(2) kd=0 ct=2.12115u
SYMATTR InstName X2
TEXT -128 -56 Left 0 !.param f1=20 f2=20k Ts=3.62 ;(cycles*1/f1)+kd
TEXT -128 -24 Left 0 ;.param k1=f1/f2
TEXT -124 -90 Left 0 !.tran {Ts}
TEXT -104 40 Left 0 ;Stepped source
TEXT 280 40 Left 0 ;Swept source
