Version 4
SHEET 1 904 680
WIRE 128 -64 128 -96
WIRE 544 -64 544 -96
WIRE 128 48 128 16
WIRE 544 48 544 16
FLAG 128 48 0
FLAG 544 48 0
SYMBOL ISO16750-2 128 -64 R0
SYMATTR InstName U1
SYMBOL ISO16750-2 544 -64 R0
SYMATTR InstName U2
SYMATTR SpiceModel 4-6-3_24V_StartingProfile
TEXT 408 144 Left 2 !.tran 0 20 0 1m
TEXT 128 -192 Left 2 ;For documentation see:\n  LTspice Models of ISO 7637-2 & ISO 16750-2 Transients\n  http://www.linear.com/solutions/7719
TEXT 128 -240 Left 4 ;ISO 16750-2 Transients
