Version 4
SHEET 1 1544 680
WIRE 80 -64 80 -96
WIRE 368 -64 368 -96
WIRE 80 48 80 16
WIRE 368 48 368 16
FLAG 80 48 0
FLAG 368 48 0
SYMBOL ISO7637-2 368 -64 R0
SYMATTR InstName U2
SYMATTR SpiceModel Pulse1_24V
SYMBOL ISO7637-2 80 -64 R0
SYMATTR InstName U1
TEXT 144 144 Left 2 !.tran 0 10 0 1m
TEXT 24 -216 Left 2 ;For documentation see:\n  LTspice Models of ISO 7637-2 & ISO 16750-2 Transients\n  http://www.linear.com/solutions/7719
TEXT 24 -256 Left 4 ;ISO 7637-2 Transients
