Version 4
SHEET 1 1284 680
WIRE 496 176 416 176
WIRE 208 224 160 224
WIRE 368 224 256 224
WIRE 544 224 368 224
WIRE 1040 224 880 224
WIRE 256 256 256 224
WIRE 880 256 880 224
WIRE 208 272 208 224
WIRE 368 272 368 224
WIRE 832 272 720 272
WIRE 496 288 496 176
WIRE 544 288 496 288
WIRE 208 400 208 320
WIRE 256 400 256 336
WIRE 368 400 368 352
WIRE 832 400 832 320
WIRE 880 400 880 336
FLAG 256 400 0
FLAG 208 400 0
FLAG 160 224 IN
IOPIN 160 224 In
FLAG 880 400 0
FLAG 832 400 0
FLAG 1040 224 OUT
IOPIN 1040 224 Out
FLAG 368 400 0
FLAG 416 176 z_phase1
SYMBOL SpecialFunctions\\sample 624 256 R0
SYMATTR InstName A1
SYMATTR Value2 td={TS*1e-4}
SYMATTR SpiceLine Vhigh=1e6 Vlow=-1e6
SYMBOL g 256 240 R0
SYMATTR InstName G1
SYMATTR Value 1
SYMBOL res 352 256 R0
SYMATTR InstName R1
SYMATTR Value 1
SYMBOL e 880 240 R0
SYMATTR InstName E1
SYMATTR Value 1
TEXT 344 32 Left 0 !.PARAM Cz={TS*1e-5}
