Version 4
SHEET 1 880 680
WIRE -992 208 -992 144
WIRE -992 320 -992 288
WIRE -880 320 -992 320
WIRE -880 336 -880 320
WIRE -880 432 -880 416
WIRE -832 144 -992 144
WIRE -832 208 -832 144
WIRE -816 208 -832 208
WIRE -816 224 -816 208
WIRE -816 320 -880 320
WIRE -816 320 -816 304
WIRE -656 160 -656 144
WIRE -656 272 -656 240
WIRE -656 304 -656 272
WIRE -656 400 -656 384
WIRE -608 144 -656 144
WIRE -608 400 -656 400
WIRE -464 144 -544 144
WIRE -464 400 -544 400
WIRE -464 400 -464 144
WIRE -368 144 -464 144
WIRE -320 144 -368 144
WIRE -320 176 -320 144
WIRE -320 272 -656 272
WIRE -320 272 -320 240
WIRE -320 432 -880 432
WIRE -320 432 -320 272
WIRE -208 144 -320 144
WIRE -208 208 -208 144
WIRE -208 256 -208 208
WIRE -208 432 -320 432
WIRE -208 432 -208 320
WIRE -16 208 -208 208
WIRE 112 432 -208 432
WIRE 112 432 112 304
WIRE 112 464 112 432
WIRE 304 208 240 208
WIRE 304 272 304 208
WIRE 304 432 112 432
WIRE 304 432 304 352
FLAG 112 464 0
FLAG -368 144 RectOut
SYMBOL ind2 -640 256 R180
WINDOW 0 36 80 Left 0
WINDOW 3 36 40 Left 0
SYMATTR InstName L1
SYMATTR Value 5m
SYMBOL ind2 -640 400 R180
WINDOW 0 36 80 Left 0
WINDOW 3 36 40 Left 0
SYMATTR InstName L2
SYMATTR Value 5m
SYMBOL ind2 -832 320 M180
WINDOW 0 36 80 Left 0
WINDOW 3 36 40 Left 0
SYMATTR InstName L3
SYMATTR Value .5
SYMATTR SpiceLine Rser=1
SYMBOL voltage -992 192 R0
WINDOW 0 -15 58 Left 0
WINDOW 3 5 108 Left 0
WINDOW 123 0 0 Left 0
WINDOW 39 0 0 Left 0
SYMATTR InstName V1
SYMATTR Value SINE(0 312 50)
SYMBOL res -896 320 R0
SYMATTR InstName R1
SYMATTR Value 1e9
SYMBOL diode -608 160 R270
WINDOW 0 16 -9 VTop 0
WINDOW 3 43 99 VBottom 0
SYMATTR InstName D1
SYMATTR Value MBR745
SYMBOL diode -608 416 R270
WINDOW 0 18 -5 VTop 0
WINDOW 3 45 94 VBottom 0
SYMATTR InstName D2
SYMATTR Value MBR745
SYMBOL polcap -336 176 R0
WINDOW 3 24 64 Left 0
SYMATTR Value 10000µ
SYMATTR InstName Cf1
SYMATTR Description Capacitor
SYMATTR Type cap
SYMATTR SpiceLine V=10 Irms=3 Rser=0.017 MTBF=2000 Lser=0 mfg="Panasonic" pn="ECA1AFQ103" type="Al electrolytic" ppPkg=1
SYMBOL cap -224 256 R0
SYMATTR InstName C1
SYMATTR Value 100n
SYMBOL res 288 256 R0
WINDOW 0 -29 32 Left 0
WINDOW 3 -23 70 Left 0
SYMATTR InstName RL
SYMATTR Value 10
SYMBOL 7805jerarq 112 208 R0
SYMATTR InstName X1
TEXT -744 160 VRight 0 !K1 L1 L2 L3 1
TEXT -994 122 Left 0 !.tran 0 1 0 200u
