Version 4
SHEET 1 880 680
WIRE -192 176 -192 144
WIRE -192 336 -192 256
WIRE -144 144 -192 144
WIRE -80 192 -80 112
WIRE -80 272 -80 192
WIRE -80 336 -192 336
WIRE -80 352 -80 336
WIRE -64 112 -80 112
WIRE -48 192 -80 192
WIRE -48 192 -48 176
WIRE -48 208 -48 192
WIRE -32 176 -48 176
WIRE -32 208 -48 208
WIRE 0 144 -144 144
WIRE 0 336 -80 336
WIRE 0 336 0 240
WIRE 48 112 16 112
WIRE 80 192 48 192
WIRE 80 192 80 144
WIRE 128 112 112 112
WIRE 128 192 80 192
WIRE 128 192 128 112
WIRE 144 192 128 192
FLAG -80 352 0
FLAG 144 192 out
IOPIN 144 192 Out
FLAG -144 144 VDD
SYMBOL res 32 96 R90
WINDOW 0 1 96 VBottom 0
WINDOW 3 -27 50 VTop 0
SYMATTR InstName R1
SYMATTR Value 39K
SYMATTR SpiceLine tol=1 pwr=0.1
SYMBOL Pote 16 128 R270
WINDOW 0 48 82 VRight 0
WINDOW 123 75 29 VCenter 0
WINDOW 3 49 34 VCenter 0
SYMATTR InstName Freq
SYMATTR Value Rt=10k
SYMBOL cap -96 272 R0
WINDOW 0 -45 8 Left 0
WINDOW 3 -48 54 Left 0
SYMATTR InstName C1
SYMATTR Value 2n2
SYMATTR SpiceLine Rpar=1e8
SYMBOL voltage -192 160 R0
WINDOW 3 -31 58 Left 0
WINDOW 123 0 0 Left 0
WINDOW 39 0 0 Left 0
SYMATTR InstName V1
SYMATTR Value {vdd}
SYMBOL Nand 0 128 R0
WINDOW 0 -16 66 Left 0
WINDOW 3 44 93 Left 0
SYMATTR InstName X1
TEXT -42 314 Left 0 !.tran 1m uic
TEXT -40 272 Left 0 !.param VDD=5
