Version 4
SHEET 1 880 680
WIRE -16 240 -32 240
WIRE -16 288 -16 240
WIRE -16 416 -32 416
WIRE -16 416 -16 368
WIRE 16 336 16 272
WIRE 32 240 -16 240
WIRE 32 272 16 272
WIRE 32 384 32 320
WIRE 32 416 -16 416
WIRE 64 208 64 176
WIRE 64 480 64 448
WIRE 128 336 16 336
WIRE 128 400 112 400
WIRE 128 400 128 336
WIRE 144 256 112 256
WIRE 144 320 32 320
WIRE 144 320 144 256
WIRE 144 400 128 400
WIRE 160 256 144 256
WIRE 192 304 64 304
WIRE 192 480 64 480
WIRE 192 480 192 304
WIRE 208 176 64 176
WIRE 208 352 64 352
WIRE 208 352 208 176
FLAG 144 400 _Q
IOPIN 144 400 Out
FLAG 160 256 Q
IOPIN 160 256 Out
FLAG -32 416 S
FLAG -32 240 R
FLAG 208 176 V+
FLAG 192 480 V-
SYMBOL res -32 272 R0
WINDOW 0 -20 16 Left 0
WINDOW 3 -24 62 Left 0
SYMATTR InstName R1
SYMATTR Value 1g
SYMBOL Nand 64 192 R0
WINDOW 0 -16 65 Left 0
WINDOW 3 -78 64 Left 0
SYMATTR InstName X1
SYMBOL Nand 64 336 R0
WINDOW 0 -16 65 Left 0
WINDOW 3 -78 64 Left 0
SYMATTR InstName X2
