Version 4
SHEET 1 2412 2644
WIRE 48 -96 -32 -96
WIRE 208 -96 112 -96
WIRE 336 -48 336 -64
WIRE 448 -48 448 -64
WIRE -176 16 -208 16
WIRE -32 16 -32 -96
WIRE -32 16 -96 16
WIRE 48 16 -32 16
WIRE 208 16 208 -96
WIRE 208 16 128 16
WIRE 336 48 336 32
WIRE 448 48 448 32
WIRE 96 160 96 144
WIRE -32 176 -32 16
WIRE 64 176 -32 176
WIRE 208 192 208 16
WIRE 208 192 128 192
WIRE 288 192 208 192
WIRE 64 208 -144 208
WIRE -544 240 -544 224
WIRE -16 256 -32 256
WIRE 80 256 80 224
WIRE 80 256 48 256
WIRE 96 256 96 224
WIRE -32 304 -32 256
WIRE 112 304 112 224
WIRE 112 304 -32 304
WIRE -544 336 -544 320
WIRE 112 352 112 304
WIRE 112 448 112 416
FLAG 448 48 0
FLAG -208 16 0
FLAG 96 144 +V
FLAG 448 -64 +V
FLAG 336 48 0
FLAG 336 -64 -V
FLAG 96 256 -V
FLAG -144 208 in
IOPIN -144 208 In
FLAG -544 336 0
FLAG -544 224 in
FLAG 288 192 out
IOPIN 288 192 Out
FLAG 112 448 0
SYMBOL voltage 448 -64 R0
WINDOW 123 0 0 Left 0
WINDOW 39 0 0 Left 0
SYMATTR InstName V1
SYMATTR Value 15
SYMBOL res -80 0 R90
WINDOW 0 0 56 VBottom 0
WINDOW 3 32 56 VTop 0
SYMATTR InstName R2
SYMATTR Value 10k
SYMBOL res 144 0 R90
WINDOW 0 0 56 VBottom 0
WINDOW 3 32 56 VTop 0
SYMATTR InstName R3
SYMATTR Value 10k
SYMBOL cap 112 -112 R90
WINDOW 0 0 32 VBottom 0
WINDOW 3 32 32 VTop 0
SYMATTR InstName C1
SYMATTR Value 5p
SYMBOL voltage 336 -64 R0
WINDOW 123 0 0 Left 0
WINDOW 39 0 0 Left 0
SYMATTR InstName V5
SYMATTR Value -15
SYMBOL voltage -544 224 R0
WINDOW 123 22 158 Left 0
WINDOW 39 24 132 Left 0
SYMATTR Value2 AC 1
SYMATTR SpiceLine Rser=50
SYMATTR InstName V6
SYMATTR Value PULSE(-1 1 0 10n 10n .1m .2m)
SYMBOL xopamp_c3 96 128 R0
SYMATTR InstName U4
SYMATTR Value LM308
SYMBOL cap 96 352 R0
SYMATTR InstName C2
SYMATTR Value {CC2}
SYMBOL cap -16 272 R270
WINDOW 0 32 32 VTop 0
WINDOW 3 0 32 VBottom 0
SYMATTR InstName C3
SYMATTR Value {CC1}
TEXT -560 -88 Left 0 ;.ac dec 30 1 10Meg
TEXT -560 -48 Left 0 !.tran 0 .4m 0 .05u
TEXT -560 -16 Left 0 !.options plotwinsize=0
TEXT -560 -144 Left 0 !.step param CC1 list 1f 1p 10p 100p
TEXT -560 -216 Left 0 !.param CC1 10p
TEXT -560 -184 Left 0 !.param CC2 1f
TEXT -560 -264 Left 0 !.include ltc.lib
TEXT -32 -192 Left 0 ;Symbol xopamp_c3.asy
TEXT -304 -272 Left 0 ;The model of the opamp LM308 is in the file LTC.lib.\nUnfortunately the capacitor C2 has not much effect in the model.
