Version 4
SHEET 1 1200 1172
WIRE -304 16 -304 -16
WIRE -304 112 -304 96
WIRE -144 -16 -304 -16
WIRE -112 224 -160 224
WIRE 32 -16 -64 -16
WIRE 32 -16 32 -128
WIRE 32 192 32 -16
WIRE 96 -128 32 -128
WIRE 96 -16 32 -16
WIRE 96 192 32 192
WIRE 96 224 -32 224
WIRE 128 176 128 144
WIRE 128 272 128 240
WIRE 224 -128 160 -128
WIRE 224 -16 176 -16
WIRE 224 -16 224 -128
WIRE 224 208 160 208
WIRE 224 208 224 -16
WIRE 272 32 272 0
WIRE 272 144 272 112
WIRE 384 32 384 0
WIRE 384 144 384 112
WIRE 384 208 224 208
FLAG 384 144 0
FLAG -160 224 0
FLAG -304 112 0
FLAG 384 208 out
IOPIN 384 208 Out
FLAG 272 144 0
FLAG -304 -16 in
FLAG 128 144 V+
FLAG 128 272 V-
FLAG 272 0 V-
FLAG 384 0 V+
SYMBOL voltage 384 16 R0
WINDOW 123 0 0 Left 0
WINDOW 39 0 0 Left 0
SYMATTR InstName V1
SYMATTR Value 5
SYMBOL voltage 272 16 R0
WINDOW 123 0 0 Left 0
WINDOW 39 0 0 Left 0
SYMATTR InstName V2
SYMATTR Value -5
SYMBOL res -48 -32 R90
WINDOW 0 0 56 VBottom 0
WINDOW 3 32 56 VTop 0
SYMATTR InstName R2
SYMATTR Value 10k
SYMBOL voltage -304 0 R0
WINDOW 3 -102 157 Left 0
WINDOW 123 0 0 Left 0
WINDOW 39 0 0 Left 0
SYMATTR Value PULSE(-0.1 0.1 0 10ns 10ns 10us 20us)
SYMATTR InstName V3
SYMBOL cap 160 -144 R90
WINDOW 0 0 32 VBottom 0
WINDOW 3 32 32 VTop 0
SYMATTR InstName C1
SYMATTR Value 1p
SYMBOL res 192 -32 R90
WINDOW 0 0 56 VBottom 0
WINDOW 3 32 56 VTop 0
SYMATTR InstName R1
SYMATTR Value 100k
SYMBOL res -128 240 R270
WINDOW 0 32 56 VTop 0
WINDOW 3 0 56 VBottom 0
SYMATTR InstName R3
SYMATTR Value 100
SYMBOL Var\\OPAMP5 128 144 R0
WINDOW 0 -26 64 Left 0
WINDOW 38 16 101 Left 0
SYMATTR InstName U1
SYMATTR SpiceModel LMC6001A/NS
TEXT -338 -94 Left 0 !.tran 0 50u 0 50n
TEXT -336 -128 Left 0 !.options plotwinsize=0
