Version 4
SHEET 1 880 680
WIRE -32 112 -80 112
WIRE 96 112 48 112
WIRE 176 112 96 112
WIRE 304 112 256 112
WIRE 160 208 160 192
WIRE 16 224 -16 224
WIRE 96 224 96 112
WIRE 128 224 96 224
WIRE 304 240 304 112
WIRE 304 240 192 240
WIRE 352 240 304 240
WIRE 16 256 16 224
WIRE 16 256 -128 256
WIRE 128 256 16 256
WIRE -256 288 -256 256
WIRE -128 288 -128 256
WIRE 16 288 16 256
WIRE 160 288 160 272
WIRE -256 400 -256 368
WIRE -128 400 -128 368
WIRE 16 400 16 368
FLAG 16 400 0
FLAG -128 400 0
FLAG -80 112 0
FLAG 160 288 0
FLAG 160 192 VCC
FLAG -256 256 VCC
FLAG -256 400 0
FLAG 352 240 out
IOPIN 352 240 Out
FLAG -16 224 in
IOPIN -16 224 In
SYMBOL res -48 128 R270
WINDOW 0 32 56 VTop 0
WINDOW 3 0 56 VBottom 0
SYMATTR InstName R1
SYMATTR Value 1k
SYMBOL res 160 128 R270
WINDOW 0 32 56 VTop 0
WINDOW 3 0 56 VBottom 0
SYMATTR InstName R2
SYMATTR Value 100k
SYMBOL res 0 272 R0
SYMATTR InstName R3
SYMATTR Value 1e6
SYMBOL voltage -128 272 R0
WINDOW 3 -19 182 Left 0
WINDOW 123 0 0 Left 0
WINDOW 39 0 0 Left 0
SYMATTR Value PULSE(10m 20m 1u 1u 1u .5m 1m)
SYMATTR InstName V1
SYMBOL voltage -256 272 R0
SYMATTR InstName V2
SYMATTR Value 5
SYMBOL Robertugo\\OPAMP5 160 176 R0
WINDOW 0 -29 64 Left 0
SYMATTR InstName U1
SYMATTR SpiceModel LMP2011
TEXT -296 16 Left 0 !.tran 0 4m 0 4u
TEXT -296 40 Left 0 !.options plotwinsize=0
