Version 4
SHEET 1 880 680
WIRE -16 16 -48 16
WIRE 112 16 48 16
WIRE -496 112 -496 96
WIRE -336 112 -336 96
WIRE -48 112 -48 16
WIRE -16 112 -48 112
WIRE 112 112 112 16
WIRE 112 112 64 112
WIRE -496 208 -496 192
WIRE -336 208 -336 192
WIRE 32 224 32 208
WIRE -352 240 -496 240
WIRE -176 240 -352 240
WIRE -48 240 -48 112
WIRE -48 240 -176 240
WIRE 0 240 -48 240
WIRE 112 256 112 112
WIRE 112 256 64 256
WIRE 240 256 112 256
WIRE -496 272 -496 240
WIRE -352 272 -352 240
WIRE -176 272 -176 240
WIRE 0 272 -48 272
WIRE 240 272 240 256
WIRE -48 304 -48 272
WIRE 32 304 32 288
WIRE -496 368 -496 352
WIRE -352 368 -352 336
WIRE -176 368 -176 336
WIRE 240 368 240 352
FLAG -336 208 0
FLAG -496 208 0
FLAG -48 304 0
FLAG 240 368 0
FLAG -496 96 V-
FLAG -336 96 V+
FLAG 32 208 V+
FLAG 32 304 V-
FLAG -176 368 0
FLAG -352 368 0
FLAG -496 368 0
SYMBOL voltage -336 96 R0
WINDOW 123 0 0 Left 2
WINDOW 39 0 0 Left 2
SYMATTR InstName V1
SYMATTR Value 5
SYMBOL voltage -496 96 R0
WINDOW 123 0 0 Left 2
WINDOW 39 0 0 Left 2
SYMATTR InstName V2
SYMATTR Value -5
SYMBOL res 80 96 R90
WINDOW 0 0 56 VBottom 2
WINDOW 3 32 56 VTop 2
SYMATTR InstName R1
SYMATTR Value 1Meg
SYMBOL cap 48 0 R90
WINDOW 0 0 32 VBottom 2
WINDOW 3 32 32 VTop 2
SYMATTR InstName C1
SYMATTR Value 5p
SYMBOL cap -160 336 R180
WINDOW 0 24 56 Left 2
WINDOW 3 24 8 Left 2
SYMATTR InstName C2
SYMATTR Value 15p
SYMBOL res 224 368 M180
WINDOW 0 36 76 Left 2
WINDOW 3 36 40 Left 2
SYMATTR InstName load
SYMATTR Value 10k
SYMBOL current -496 272 R0
WINDOW 3 -9 137 Left 2
WINDOW 123 0 0 Left 2
WINDOW 39 0 0 Left 2
SYMATTR Value PULSE(0 1u 0 1n 1n .5m 1m)
SYMATTR InstName I1
SYMBOL diode -368 336 M180
WINDOW 0 24 64 Left 2
WINDOW 3 24 0 Left 2
SYMATTR InstName D1
SYMATTR Value DP
SYMBOL Robertugo\\opamp5 32 192 R0
SYMATTR InstName U1
SYMATTR SpiceModel LMV793
TEXT -472 32 Left 2 !.tran 2m
TEXT -360 32 Left 2 !.model DP D(Cjo=9p RS=10)
