Version 4
SHEET 1 1384 1732
WIRE -1344 -64 -1424 -64
WIRE -1136 -64 -1264 -64
WIRE -1024 -64 -1136 -64
WIRE -848 -64 -944 -64
WIRE -1424 -16 -1424 -64
WIRE -976 16 -992 16
WIRE -992 64 -992 16
WIRE -1136 80 -1136 -64
WIRE -1024 80 -1136 80
WIRE -848 96 -848 -64
WIRE -848 96 -960 96
WIRE -768 96 -848 96
WIRE -1344 112 -1424 112
WIRE -1136 112 -1264 112
WIRE -1024 112 -1136 112
WIRE -1424 144 -1424 112
WIRE -1136 160 -1136 112
WIRE -992 192 -992 128
WIRE -896 272 -896 240
WIRE -1424 288 -1424 224
WIRE -1136 288 -1136 240
WIRE -896 384 -896 352
FLAG -1424 288 0
FLAG -896 384 0
FLAG -896 240 3V3
FLAG -1424 -16 0
FLAG -992 192 0
FLAG -976 16 3V3
FLAG -1136 288 0
FLAG -768 96 out
SYMBOL voltage -1424 128 R0
WINDOW 123 0 0 Left 0
WINDOW 39 0 0 Left 0
SYMATTR InstName V1
SYMATTR Value SINE(0.5 0.4 60 0 0)
SYMBOL voltage -896 256 R0
WINDOW 123 0 0 Left 0
WINDOW 39 0 0 Left 0
SYMATTR InstName V3
SYMATTR Value 3.3
SYMBOL res -1248 96 R90
WINDOW 0 0 56 VBottom 0
WINDOW 3 32 56 VTop 0
SYMATTR InstName R6
SYMATTR Value 1k
SYMATTR SpiceLine tol=0.1 pwr=0.125
SYMBOL res -1152 256 M180
WINDOW 0 36 76 Left 0
WINDOW 3 36 40 Left 0
SYMATTR InstName R7
SYMATTR Value 4.7k
SYMATTR SpiceLine tol=0.1 pwr=0.125
SYMBOL res -1248 -80 R90
WINDOW 0 0 56 VBottom 0
WINDOW 3 32 56 VTop 0
SYMATTR InstName R8
SYMATTR Value 1k
SYMATTR SpiceLine tol=0.1 pwr=0.125
SYMBOL res -928 -80 R90
WINDOW 0 0 56 VBottom 0
WINDOW 3 32 56 VTop 0
SYMATTR InstName R9
SYMATTR Value 3.3k
SYMATTR SpiceLine tol=0.1 pwr=0.125
SYMBOL Robertugo\\opamp5 -992 32 R0
SYMATTR InstName U1
SYMATTR SpiceModel LMV854
TEXT -1440 -160 Left 0 !.tran 0 100m 0 .1m
TEXT -1208 -160 Left 0 !.options plotwinsize=0
