Version 4
SHEET 1 1440 1188
WIRE -160 -128 -192 -128
WIRE -48 -128 -96 -128
WIRE 464 -96 128 -96
WIRE 880 -96 464 -96
WIRE -560 -48 -640 -48
WIRE -384 -32 -496 -32
WIRE -320 -32 -384 -32
WIRE -192 -32 -192 -128
WIRE -192 -32 -240 -32
WIRE -176 -32 -192 -32
WIRE -560 -16 -576 -16
WIRE -48 -16 -48 -128
WIRE -48 -16 -112 -16
WIRE 880 -16 880 -96
WIRE 880 -16 816 -16
WIRE 944 -16 880 -16
WIRE -176 0 -224 0
WIRE 128 0 128 -16
WIRE -848 48 -848 16
WIRE 816 64 816 -16
WIRE -144 96 -144 16
WIRE 128 96 128 80
WIRE 224 96 128 96
WIRE -576 112 -576 -16
WIRE -512 112 -576 112
WIRE -384 112 -384 -32
WIRE -384 112 -432 112
WIRE 816 144 736 144
WIRE 736 160 736 144
WIRE 944 160 944 -16
WIRE -576 208 -576 112
WIRE -528 208 -576 208
WIRE -48 208 -48 -16
WIRE -48 208 -448 208
WIRE 128 208 128 176
WIRE -640 256 -640 -48
WIRE -560 256 -640 256
WIRE -384 256 -560 256
WIRE -224 256 -224 0
WIRE -224 256 -384 256
WIRE 736 272 736 224
WIRE 816 272 736 272
WIRE 944 272 944 224
WIRE 944 272 816 272
WIRE -720 288 -720 144
WIRE -48 288 -48 208
WIRE 128 320 128 288
WIRE 816 320 816 272
WIRE -448 336 -448 304
WIRE -560 352 -560 256
WIRE -480 352 -560 352
WIRE -224 368 -224 256
WIRE -224 368 -416 368
WIRE -720 384 -720 368
WIRE -480 384 -720 384
WIRE 224 384 224 96
WIRE 240 384 224 384
WIRE -720 400 -720 384
WIRE 400 400 304 400
WIRE 496 400 400 400
WIRE 768 400 576 400
WIRE 240 416 224 416
WIRE -448 448 -448 400
WIRE 272 464 272 432
WIRE 816 464 816 416
WIRE -720 528 -720 480
WIRE -48 544 -48 288
WIRE 224 544 224 416
WIRE 224 544 -48 544
FLAG -720 528 0
FLAG 128 320 0
FLAG 400 400 pwm_out
FLAG -384 256 pwm_V_ref
FLAG -384 -32 pwm_V_sq
FLAG -48 288 pwm_V_tri
FLAG 816 464 0
FLAG -448 304 V+
FLAG -720 144 V+
FLAG -528 -64 V+
FLAG -144 -48 V+
FLAG 272 368 V+
FLAG -848 48 0
FLAG -848 -64 V+
FLAG -528 0 0
FLAG -144 96 0
FLAG -448 448 0
FLAG 272 464 0
FLAG 464 -96 V+
SYMBOL res -736 272 R0
SYMATTR InstName R6
SYMATTR Value 100k
SYMBOL res -736 384 R0
SYMATTR InstName R7
SYMATTR Value 100k
SYMBOL res -416 96 R90
WINDOW 0 0 56 VBottom 0
WINDOW 3 32 56 VTop 0
SYMATTR InstName R8
SYMATTR Value 100k
SYMBOL res -432 192 R90
WINDOW 0 0 56 VBottom 0
WINDOW 3 32 56 VTop 0
SYMATTR InstName R9
SYMATTR Value 47k
SYMBOL res -224 -48 R90
WINDOW 0 0 56 VBottom 0
WINDOW 3 32 56 VTop 0
SYMATTR InstName R10
SYMATTR Value 100k
SYMBOL res 144 0 R180
WINDOW 0 36 76 Left 0
WINDOW 3 36 40 Left 0
SYMATTR InstName R11
SYMATTR Value 3.3k
SYMBOL res 144 96 R180
WINDOW 0 36 76 Left 0
WINDOW 3 36 40 Left 0
SYMATTR InstName R12
SYMATTR Value 3k
SYMBOL res 144 192 R180
WINDOW 0 36 76 Left 0
WINDOW 3 36 40 Left 0
SYMATTR InstName R13
SYMATTR Value 6
SYMBOL res 144 304 R180
WINDOW 0 36 76 Left 0
WINDOW 3 36 40 Left 0
SYMATTR InstName R14
SYMATTR Value 3.3k
SYMBOL cap -96 -144 R90
WINDOW 0 0 32 VBottom 0
WINDOW 3 28 24 VTop 0
SYMATTR InstName C3
SYMATTR Value .01µF
SYMBOL nmos 768 320 R0
SYMATTR InstName M1
SYMBOL res 592 384 R90
WINDOW 0 0 56 VBottom 0
WINDOW 3 32 56 VTop 0
SYMATTR InstName R15
SYMATTR Value 1K
SYMBOL res 800 48 R0
SYMATTR InstName R16
SYMATTR Value 2.7k
SYMBOL LED 720 160 R0
SYMATTR InstName D7
SYMBOL diode 960 224 R180
WINDOW 0 24 72 Left 0
WINDOW 3 24 0 Left 0
SYMATTR InstName D8
SYMATTR Value 1N4148
SYMBOL voltage -848 -80 R0
WINDOW 123 0 0 Left 0
WINDOW 39 0 0 Left 0
SYMATTR InstName V3
SYMATTR Value 12V
SYMBOL Robertugo\\OPAMP5 -528 -96 R0
SYMATTR InstName U1a
SYMATTR SpiceModel LM324/NS
SYMBOL Robertugo\\OPAMP5 -144 -80 R0
SYMATTR InstName U1c
SYMATTR SpiceModel LM324/NS
SYMBOL Robertugo\\OPAMP5 272 336 R0
SYMATTR InstName U1d
SYMATTR SpiceModel LM324/NS
SYMBOL Robertugo\\OPAMP5 -448 304 R0
SYMATTR InstName U1b
SYMATTR SpiceModel LM324/NS
TEXT 112 -272 Left 0 !.tran 0 10m 0 10u startup
TEXT -528 -304 Left 0 !.options gminsteps=0   ; help for convergence
TEXT -528 -264 Left 0 !.options plotwinsize=0  ; is optional for saving all data
