Version 4
SHEET 1 920 716
WIRE -752 224 -816 224
WIRE -208 224 -656 224
WIRE -176 224 -208 224
WIRE -32 224 -96 224
WIRE 112 224 48 224
WIRE 656 224 208 224
WIRE 688 224 656 224
WIRE 832 224 768 224
WIRE -816 304 -816 224
WIRE -800 304 -816 304
WIRE -704 304 -704 288
WIRE -704 304 -720 304
WIRE -592 304 -704 304
WIRE -368 304 -464 304
WIRE -256 304 -288 304
WIRE -160 304 -256 304
WIRE -112 304 -160 304
WIRE -32 304 -32 224
WIRE -32 304 -112 304
WIRE 48 304 48 224
WIRE 64 304 48 304
WIRE 160 304 160 288
WIRE 160 304 144 304
WIRE 272 304 160 304
WIRE 496 304 400 304
WIRE 608 304 576 304
WIRE 704 304 608 304
WIRE 752 304 704 304
WIRE 832 304 832 224
WIRE 832 304 752 304
WIRE -160 416 -160 304
WIRE 704 416 704 304
WIRE -528 432 -528 352
WIRE -528 432 -624 432
WIRE -368 432 -528 432
WIRE -256 432 -256 304
WIRE -256 432 -288 432
WIRE 336 432 336 352
WIRE 336 432 240 432
WIRE 496 432 336 432
WIRE 608 432 608 304
WIRE 608 432 576 432
WIRE -816 480 -816 304
WIRE -624 480 -624 432
WIRE -528 480 -528 432
WIRE -112 480 -112 304
WIRE 48 480 48 304
WIRE 240 480 240 432
WIRE 336 480 336 432
WIRE 752 480 752 304
WIRE -560 512 -576 512
WIRE -384 512 -416 512
WIRE -208 512 -208 224
WIRE -208 512 -320 512
WIRE 304 512 288 512
WIRE 480 512 448 512
WIRE 656 512 656 224
WIRE 656 512 544 512
WIRE -624 560 -624 544
WIRE -576 560 -576 512
WIRE -576 560 -624 560
WIRE -528 560 -528 544
WIRE -528 560 -576 560
WIRE -416 560 -416 512
WIRE -416 560 -528 560
WIRE -384 560 -416 560
WIRE -208 560 -208 512
WIRE -208 560 -304 560
WIRE 240 560 240 544
WIRE 288 560 288 512
WIRE 288 560 240 560
WIRE 336 560 336 544
WIRE 336 560 288 560
WIRE 448 560 448 512
WIRE 448 560 336 560
WIRE 480 560 448 560
WIRE 656 560 656 512
WIRE 656 560 560 560
WIRE -528 592 -528 560
WIRE -208 592 -208 560
WIRE -32 592 -32 304
WIRE 336 592 336 560
WIRE 656 592 656 560
WIRE 832 592 832 304
WIRE -816 640 -816 560
WIRE -784 640 -816 640
WIRE 48 640 48 560
WIRE 80 640 48 640
WIRE -784 656 -784 640
WIRE 80 656 80 640
WIRE -816 688 -816 640
WIRE -528 688 -528 672
WIRE -528 688 -816 688
WIRE -208 688 -208 656
WIRE -208 688 -528 688
WIRE -112 688 -112 560
WIRE -112 688 -208 688
WIRE -32 688 -32 656
WIRE -32 688 -112 688
WIRE 48 688 48 640
WIRE 336 688 336 672
WIRE 336 688 48 688
WIRE 656 688 656 656
WIRE 656 688 336 688
WIRE 752 688 752 560
WIRE 752 688 656 688
WIRE 832 688 832 656
WIRE 832 688 752 688
FLAG 80 656 0
FLAG 704 416 Out
IOPIN 704 416 Out
FLAG -784 656 0
FLAG -160 416 Out2
IOPIN -160 416 Out
SYMBOL reg3all 400 320 R0
SYMATTR InstName U1
SYMATTR SpiceModel LM317Psp
SYMBOL pnp2 208 288 M270
WINDOW 0 34 63 VLeft 0
WINDOW 3 58 84 VLeft 0
SYMATTR InstName Q1
SYMATTR Value BD440
SYMBOL res 160 288 R90
WINDOW 0 58 91 VBottom 0
WINDOW 3 32 46 VTop 0
SYMATTR InstName R1
SYMATTR Value 22
SYMATTR SpiceLine tol=1 pwr=0.1
SYMBOL res 592 288 R90
WINDOW 0 58 91 VBottom 0
WINDOW 3 32 46 VTop 0
SYMATTR InstName R2
SYMATTR Value 0.22
SYMATTR SpiceLine tol=1 pwr=0.1
SYMBOL res 592 416 R90
WINDOW 0 58 91 VBottom 0
WINDOW 3 32 46 VTop 0
SYMATTR InstName R3
SYMATTR Value 220
SYMATTR SpiceLine tol=1 pwr=0.1
SYMBOL Pote 320 576 M180
WINDOW 0 35 116 Left 0
WINDOW 123 68 91 Center 0
WINDOW 3 71 68 Center 0
SYMATTR InstName Uadj
SYMATTR Value Rt=5k
SYMBOL cap 224 480 R0
WINDOW 3 19 62 Left 0
SYMATTR Value 10n
SYMATTR InstName C1
SYMBOL res 576 544 R90
WINDOW 0 58 91 VBottom 0
WINDOW 3 32 46 VTop 0
SYMATTR InstName R4
SYMATTR Value 15K
SYMATTR SpiceLine tol=1 pwr=0.1
SYMBOL cap 544 496 R90
WINDOW 0 44 62 VBottom 0
WINDOW 3 16 -9 VTop 0
SYMATTR InstName C2
SYMATTR Value 330p
SYMBOL res 320 576 R0
WINDOW 0 37 45 Left 0
SYMATTR InstName R5
SYMATTR Value 100
SYMATTR SpiceLine tol=1 pwr=0.1
SYMBOL diode 672 656 R180
WINDOW 0 24 72 Left 0
WINDOW 3 24 0 Left 0
SYMATTR InstName D1
SYMATTR Value MURS320
SYMBOL polcap 816 592 R0
WINDOW 0 -37 33 Left 0
WINDOW 3 -33 68 Left 0
SYMATTR InstName C3
SYMATTR Value 1m
SYMATTR Description Capacitor
SYMATTR Type cap
SYMATTR SpiceLine V=25 Irms=1.69 Rser=0.034 MTBF=2000 Lser=0 mfg="Panasonic" pn="ECA1EFQ102" type="Al electrolytic" ppPkg=1
SYMBOL res 736 464 R0
WINDOW 0 44 48 Left 0
WINDOW 3 40 85 Left 0
SYMATTR InstName RL
SYMATTR Value 5
SYMATTR SpiceLine tol=1 pwr=0.1
SYMBOL voltage 48 464 R0
WINDOW 3 -13 60 Left 0
WINDOW 123 0 0 Left 0
WINDOW 39 8 120 Left 0
SYMATTR Value 35
SYMATTR SpiceLine Rser=1m Cpar=47u
SYMATTR InstName V1
SYMBOL ind 672 240 R270
WINDOW 0 -22 21 VTop 0
WINDOW 3 5 74 VBottom 0
SYMATTR InstName L1
SYMATTR Value 600u
SYMATTR SpiceLine Rser=0.1 Rpar=3K3 Cpar=5p
SYMBOL reg3all -464 320 R0
SYMATTR InstName U2
SYMATTR SpiceModel LM317Psp
SYMBOL pnp2 -656 288 M270
WINDOW 0 34 63 VLeft 0
WINDOW 3 58 84 VLeft 0
SYMATTR InstName Q2
SYMATTR Value BD440
SYMBOL res -704 288 R90
WINDOW 0 58 91 VBottom 0
WINDOW 3 32 46 VTop 0
SYMATTR InstName R6
SYMATTR Value 22
SYMATTR SpiceLine tol=1 pwr=0.1
SYMBOL res -272 288 R90
WINDOW 0 58 91 VBottom 0
WINDOW 3 32 46 VTop 0
SYMATTR InstName R7
SYMATTR Value 0.22
SYMATTR SpiceLine tol=1 pwr=0.1
SYMBOL res -272 416 R90
WINDOW 0 58 91 VBottom 0
WINDOW 3 32 46 VTop 0
SYMATTR InstName R8
SYMATTR Value 220
SYMATTR SpiceLine tol=1 pwr=0.1
SYMBOL Pote -544 576 M180
WINDOW 0 40 121 Left 0
WINDOW 123 68 91 Center 0
WINDOW 3 68 66 Center 0
SYMATTR InstName Uadj1
SYMATTR Value Rt=5k
SYMBOL cap -640 480 R0
WINDOW 3 19 62 Left 0
SYMATTR Value 10n
SYMATTR InstName C4
SYMBOL res -288 544 R90
WINDOW 0 58 91 VBottom 0
WINDOW 3 32 46 VTop 0
SYMATTR InstName R9
SYMATTR Value 15K
SYMATTR SpiceLine tol=1 pwr=0.1
SYMBOL cap -320 496 R90
WINDOW 0 44 62 VBottom 0
WINDOW 3 16 -9 VTop 0
SYMATTR InstName C5
SYMATTR Value 330p
SYMBOL res -544 576 R0
WINDOW 0 37 45 Left 0
SYMATTR InstName R10
SYMATTR Value 100
SYMATTR SpiceLine tol=1 pwr=0.1
SYMBOL diode -192 656 R180
WINDOW 0 24 72 Left 0
WINDOW 3 24 0 Left 0
SYMATTR InstName D2
SYMATTR Value MURS320
SYMBOL polcap -48 592 R0
WINDOW 0 -37 33 Left 0
WINDOW 3 -33 68 Left 0
SYMATTR InstName C6
SYMATTR Value 1m
SYMATTR Description Capacitor
SYMATTR Type cap
SYMATTR SpiceLine V=25 Irms=1.69 Rser=0.034 MTBF=2000 Lser=0 mfg="Panasonic" pn="ECA1EFQ102" type="Al electrolytic" ppPkg=1
SYMBOL res -128 464 R0
WINDOW 0 44 48 Left 0
WINDOW 3 40 85 Left 0
SYMATTR InstName RL1
SYMATTR Value 5
SYMATTR SpiceLine tol=1 pwr=0.1
SYMBOL voltage -816 464 R0
WINDOW 3 -13 60 Left 0
WINDOW 123 0 0 Left 0
WINDOW 39 8 120 Left 0
SYMATTR Value 35
SYMATTR SpiceLine Rser=1m Cpar=47u
SYMATTR InstName V2
SYMBOL ind -192 240 R270
WINDOW 0 -22 21 VTop 0
WINDOW 3 5 74 VBottom 0
SYMATTR InstName L2
SYMATTR Value 600u
SYMATTR SpiceLine Rser=0.1 Rpar=3K3 Cpar=5p
TEXT 112 672 Left 0 !.tran 0 3m 1m
