Version 4
SHEET 1 1236 716
WIRE 448 176 0 176
WIRE 656 176 544 176
WIRE 0 240 0 176
WIRE 96 240 0 240
WIRE 496 240 192 240
WIRE 544 240 496 240
WIRE 656 240 656 176
WIRE 656 240 624 240
WIRE 704 240 656 240
WIRE 832 240 784 240
WIRE 144 320 144 304
WIRE 272 320 192 320
WIRE 544 320 400 320
WIRE 704 320 624 320
WIRE 752 320 704 320
WIRE 832 320 832 240
WIRE 832 320 752 320
WIRE 704 352 704 320
WIRE 0 416 0 240
WIRE 32 416 0 416
WIRE 144 416 144 400
WIRE 144 416 112 416
WIRE 192 416 192 320
WIRE 192 416 144 416
WIRE 336 432 336 368
WIRE 336 432 240 432
WIRE 544 432 336 432
WIRE 832 432 832 320
WIRE 832 432 624 432
WIRE 496 448 496 240
WIRE 0 480 0 416
WIRE 240 480 240 432
WIRE 336 480 336 432
WIRE 752 480 752 320
WIRE 304 512 288 512
WIRE 240 560 240 544
WIRE 288 560 288 512
WIRE 288 560 240 560
WIRE 336 560 336 544
WIRE 336 560 288 560
WIRE 496 560 496 528
WIRE 496 560 336 560
WIRE 544 560 496 560
WIRE 656 560 656 240
WIRE 656 560 608 560
WIRE 336 592 336 560
WIRE 656 592 656 560
WIRE 832 592 832 432
WIRE 0 640 0 560
WIRE 32 640 0 640
WIRE 32 656 32 640
WIRE 0 688 0 640
WIRE 336 688 336 672
WIRE 336 688 0 688
WIRE 656 688 656 656
WIRE 656 688 336 688
WIRE 752 688 752 560
WIRE 752 688 656 688
WIRE 832 688 832 656
WIRE 832 688 752 688
FLAG 32 656 0
FLAG 704 352 Out
IOPIN 704 352 Out
SYMBOL reg3all 400 336 R0
SYMATTR InstName U1
SYMATTR SpiceModel LM317Psp
SYMBOL pnp2 192 304 M270
WINDOW 0 34 63 VLeft 0
WINDOW 3 74 93 VLeft 0
SYMATTR InstName Q1
SYMATTR Value 2N2905A
SYMBOL res 128 400 R90
WINDOW 0 58 91 VBottom 0
WINDOW 3 32 46 VTop 0
SYMATTR InstName R1
SYMATTR Value 33
SYMATTR SpiceLine tol=1 pwr=0.1
SYMBOL res 640 304 R90
WINDOW 0 16 111 VBottom 0
WINDOW 3 -13 13 VTop 0
SYMATTR InstName R2
SYMATTR Value 2.2
SYMATTR SpiceLine tol=1 pwr=0.1
SYMBOL res 640 416 R90
WINDOW 0 16 109 VBottom 0
WINDOW 3 -11 11 VTop 0
SYMATTR InstName R3
SYMATTR Value 220
SYMATTR SpiceLine tol=1 pwr=0.1
SYMBOL Pote 320 576 M180
WINDOW 0 41 115 Left 0
WINDOW 123 76 90 Center 0
WINDOW 3 75 66 Center 0
SYMATTR InstName Uadj
SYMATTR Value Rt=5k
SYMBOL cap 224 480 R0
WINDOW 3 21 8 Left 0
WINDOW 0 22 -20 Left 0
SYMATTR Value 10n
SYMATTR InstName C1
SYMBOL res 512 544 R180
WINDOW 0 -31 62 Left 0
WINDOW 3 -44 33 Left 0
SYMATTR InstName R4
SYMATTR Value 15K
SYMATTR SpiceLine tol=1 pwr=0.1
SYMBOL cap 608 544 R90
WINDOW 0 44 62 VBottom 0
WINDOW 3 16 -9 VTop 0
SYMATTR InstName C2
SYMATTR Value 100p
SYMBOL res 320 576 R0
WINDOW 0 37 45 Left 0
SYMATTR InstName R5
SYMATTR Value 100
SYMATTR SpiceLine tol=1 pwr=0.1
SYMBOL diode 672 656 R180
WINDOW 0 98 27 Left 0
WINDOW 3 24 0 Left 0
SYMATTR InstName D1
SYMATTR Value MURS320
SYMBOL polcap 816 592 R0
WINDOW 0 -37 33 Left 0
WINDOW 3 -33 68 Left 0
SYMATTR InstName C3
SYMATTR Value 1m
SYMATTR Description Capacitor
SYMATTR Type cap
SYMATTR SpiceLine V=25 Irms=1.69 Rser=0.034 MTBF=2000 Lser=0 mfg="Panasonic" pn="ECA1EFQ102" type="Al electrolytic" ppPkg=1
SYMBOL res 736 464 R0
WINDOW 0 44 48 Left 0
WINDOW 3 40 85 Left 0
SYMATTR InstName RL
SYMATTR Value 3
SYMATTR SpiceLine tol=1 pwr=0.1
SYMBOL voltage 0 464 R0
WINDOW 3 -13 60 Left 0
WINDOW 123 0 0 Left 0
WINDOW 39 8 120 Left 0
SYMATTR Value 35
SYMATTR SpiceLine Rser=1m Cpar=100u
SYMATTR InstName V1
SYMBOL ind 688 256 R270
WINDOW 0 -22 21 VTop 0
WINDOW 3 5 74 VBottom 0
SYMATTR InstName L1
SYMATTR Value 600u
SYMATTR SpiceLine Rser=0.1 Rpar=3K3 Cpar=5p
SYMBOL res 128 304 R0
WINDOW 0 -30 35 Left 0
WINDOW 3 -41 65 Left 0
SYMATTR InstName R6
SYMATTR Value 470
SYMBOL npn2 448 240 R270
WINDOW 0 45 -76 VRight 0
WINDOW 3 22 -82 VRight 0
SYMATTR InstName Q2
SYMATTR Value Q2N3055
SYMBOL res 640 224 R90
WINDOW 0 15 98 VBottom 0
WINDOW 3 -10 11 VTop 0
SYMATTR InstName R7
SYMATTR Value 100
TEXT 120 648 Left 0 !.tran 0 5m 3m
