Version 4
SHEET 1 880 680
WIRE -80 16 -208 16
WIRE 432 16 -80 16
WIRE -208 32 -208 16
WIRE -48 48 -112 48
WIRE 432 48 432 16
WIRE 432 48 176 48
WIRE -112 80 -112 48
WIRE -112 112 -208 112
WIRE -48 112 -112 112
WIRE 208 112 176 112
WIRE 224 112 208 112
WIRE 432 112 432 48
WIRE 432 112 304 112
WIRE 496 112 432 112
WIRE 432 160 432 112
WIRE -208 176 -208 112
WIRE -48 176 -64 176
WIRE 208 176 208 112
WIRE 208 176 176 176
WIRE 272 176 208 176
WIRE 496 208 496 112
WIRE 528 208 496 208
WIRE 704 224 592 224
WIRE -80 240 -80 16
WIRE -48 240 -80 240
WIRE 208 240 176 240
WIRE -112 256 -112 112
WIRE 704 256 704 224
WIRE -64 272 -64 176
WIRE 352 272 -64 272
WIRE 528 272 352 272
WIRE 208 288 208 240
WIRE 272 288 272 176
WIRE 528 304 496 304
WIRE -208 368 -208 240
WIRE -112 368 -112 320
WIRE -112 368 -208 368
WIRE 208 368 208 352
WIRE 208 368 -112 368
WIRE 272 368 272 352
WIRE 272 368 208 368
WIRE 432 368 432 240
WIRE 432 368 272 368
WIRE 496 368 496 304
WIRE 496 368 432 368
WIRE 704 368 704 336
WIRE 704 368 496 368
WIRE 208 384 208 368
FLAG 208 384 0
FLAG 352 272 out555
IOPIN 352 272 Out
FLAG -112 80 0
SYMBOL Robertugo\\555_ALL 112 160 R0
SYMATTR InstName U1
SYMATTR SpiceModel LM555
SYMBOL voltage 432 144 R0
WINDOW 0 -43 4 Left 0
WINDOW 3 -12 56 Left 0
WINDOW 123 0 0 Left 0
SYMATTR InstName Vcc
SYMATTR Value 14
SYMATTR SpiceLine Rser=1 Cpar=100u
SYMBOL cap 192 288 R0
WINDOW 0 24 13 Left 0
WINDOW 3 22 61 Left 0
SYMATTR InstName C4
SYMATTR Value 10n
SYMBOL res 320 96 R90
WINDOW 0 59 91 VBottom 0
WINDOW 3 32 34 VTop 0
SYMATTR InstName RT
SYMATTR Value 5.6e6
SYMATTR SpiceLine tol=1 pwr=0.1
SYMBOL cap -128 256 R0
WINDOW 0 24 12 Left 0
WINDOW 3 22 60 Left 0
SYMATTR InstName C3
SYMATTR Value 10n
SYMBOL polcap 256 288 R0
WINDOW 0 24 13 Left 0
WINDOW 3 22 61 Left 0
SYMATTR InstName CT
SYMATTR Value 100µ
SYMATTR Description Capacitor
SYMATTR Type cap
SYMATTR SpiceLine V=16 Irms=265m Rser=0.35 Lser=0 mfg="Nichicon" pn="UPL1C101MPH" type="Al electrolytic"
SYMBOL Robertugo\\SwTime -208 208 R270
SYMATTR SpiceLine Ton=1
SYMATTR SpiceLine2 Toff=1.5
SYMATTR InstName U2
SYMBOL res -224 16 R0
WINDOW 0 27 49 Left 0
WINDOW 3 24 82 Left 0
SYMATTR InstName R1
SYMATTR Value 10k
SYMBOL Magnetic\\rly_spst-no 560 224 R0
SYMATTR SpiceModel Relevador
SYMATTR InstName Ur
SYMBOL Misc\\battery 704 240 R0
WINDOW 0 -73 5 Left 0
WINDOW 3 -53 94 Left 0
SYMATTR InstName Vbat
SYMATTR Value 12.6
TEXT -56 352 Left 0 !.tran 700
TEXT 192 80 Left 0 ;3Meg9+2MegPreset
TEXT -320 224 Left 0 ;Pulsador
