Version 4
SHEET 1 880 680
WIRE 384 16 -80 16
WIRE 432 16 384 16
WIRE -48 48 -112 48
WIRE 384 48 384 16
WIRE 384 48 176 48
WIRE -528 80 -544 80
WIRE -112 80 -112 48
WIRE -368 96 -416 96
WIRE -352 96 -368 96
WIRE 432 96 432 16
WIRE -896 112 -944 112
WIRE -864 112 -896 112
WIRE -720 112 -816 112
WIRE -640 112 -656 112
WIRE -544 112 -544 80
WIRE -544 112 -640 112
WIRE -528 112 -544 112
WIRE -224 112 -240 112
WIRE -112 112 -144 112
WIRE -48 112 -112 112
WIRE 208 112 176 112
WIRE 224 112 208 112
WIRE 384 112 384 48
WIRE 384 112 304 112
WIRE -816 128 -816 112
WIRE -352 128 -400 128
WIRE -640 144 -640 112
WIRE -896 160 -896 112
WIRE -48 176 -64 176
WIRE 208 176 208 112
WIRE 208 176 176 176
WIRE 272 176 208 176
WIRE -1088 192 -1088 176
WIRE -1088 192 -1104 192
WIRE -960 192 -976 192
WIRE 384 192 384 112
WIRE -1088 208 -1088 192
WIRE -592 208 -608 208
WIRE -864 224 -864 112
WIRE -816 224 -816 192
WIRE -816 224 -864 224
WIRE -640 224 -640 208
WIRE -640 224 -688 224
WIRE -464 224 -480 224
WIRE -688 240 -688 224
WIRE -608 240 -608 208
WIRE -592 240 -608 240
WIRE -464 240 -464 224
WIRE -368 240 -368 96
WIRE -80 240 -80 16
WIRE -48 240 -80 240
WIRE 208 240 176 240
WIRE -1104 256 -1104 192
WIRE -1056 256 -1104 256
WIRE -960 256 -960 192
WIRE -960 256 -976 256
WIRE -896 256 -896 224
WIRE -896 256 -960 256
WIRE -864 256 -864 224
WIRE -640 256 -640 224
WIRE -112 256 -112 112
WIRE 208 272 208 240
WIRE 272 272 272 176
WIRE 432 272 432 176
WIRE -64 288 -64 176
WIRE 0 288 -64 288
WIRE -944 304 -944 112
WIRE -720 336 -864 336
WIRE -640 336 -640 320
WIRE -640 336 -656 336
WIRE -608 336 -608 240
WIRE -608 336 -640 336
WIRE -400 336 -400 128
WIRE -400 336 -608 336
WIRE -1104 368 -1104 320
WIRE -608 368 -944 368
WIRE -592 368 -608 368
WIRE -464 368 -464 304
WIRE -464 368 -512 368
WIRE -368 368 -368 304
WIRE -256 368 -368 368
WIRE -112 368 -112 320
WIRE -112 368 -176 368
WIRE 64 368 -112 368
WIRE 208 368 208 336
WIRE 208 368 64 368
WIRE 272 368 272 336
WIRE 272 368 208 368
WIRE 384 368 384 272
WIRE 384 368 272 368
WIRE 432 368 432 336
WIRE 432 368 384 368
WIRE -608 384 -608 368
WIRE 64 384 64 368
FLAG -688 240 0
FLAG 64 384 0
FLAG 0 288 out555
IOPIN 0 288 Out
FLAG -112 80 0
FLAG -1104 368 0
FLAG -608 384 0
SYMBOL cap -656 144 R0
WINDOW 0 -19 5 Left 0
WINDOW 3 -20 53 Left 0
SYMATTR InstName C1
SYMATTR Value 1n
SYMBOL cap -656 256 R0
WINDOW 0 -21 4 Left 0
WINDOW 3 -14 52 Left 0
SYMATTR InstName C2
SYMATTR Value 1n
SYMBOL LED -384 240 R0
WINDOW 3 24 72 Invisible 0
WINDOW 0 19 2 Left 0
SYMATTR Value TLSV5100RED
SYMATTR InstName D3
SYMATTR Description Diode
SYMATTR Type diode
SYMBOL res -272 384 R270
WINDOW 0 16 7 VTop 0
WINDOW 3 44 107 VBottom 0
SYMATTR InstName R3
SYMATTR Value 1k
SYMATTR SpiceLine tol=1 pwr=0.1
SYMBOL Robertugo\\555_ALL 112 160 R0
SYMATTR InstName U1
SYMATTR SpiceModel 5b1sw555
SYMBOL voltage 384 176 R0
WINDOW 0 -34 4 Left 0
WINDOW 3 -29 57 Left 0
WINDOW 123 0 0 Left 0
SYMATTR InstName V1
SYMATTR Value {Vcc}
SYMATTR SpiceLine Rser=1 Cpar=100u
SYMBOL res 448 192 R180
WINDOW 0 -15 78 Bottom 0
WINDOW 3 -17 9 Top 0
SYMATTR InstName R4
SYMATTR Value 1K
SYMATTR SpiceLine tol=1 pwr=0.1
SYMBOL LED 416 272 R0
WINDOW 3 24 72 Invisible 0
WINDOW 0 -21 4 Left 0
SYMATTR Value TLSV5100RED
SYMATTR InstName D5
SYMATTR Description Diode
SYMATTR Type diode
SYMBOL cap 192 272 R0
WINDOW 0 24 13 Left 0
WINDOW 3 22 61 Left 0
SYMATTR InstName C4
SYMATTR Value 10n
SYMBOL res 320 96 R90
WINDOW 0 0 56 VBottom 0
WINDOW 3 32 56 VTop 0
SYMATTR InstName R6
SYMATTR Value 5e6
SYMATTR SpiceLine tol=1 pwr=0.1
SYMBOL res -960 240 R90
WINDOW 0 0 56 VBottom 0
WINDOW 3 32 56 VTop 0
SYMATTR InstName R7
SYMATTR Value 100k
SYMBOL cap -1120 256 R0
WINDOW 0 24 15 Left 0
SYMATTR InstName Cf
SYMATTR Value 10n
SYMBOL Dig_Add\\CD4xxx\\cd4093b -1040 128 R0
WINDOW 3 -35 -9 Left 0
SYMATTR InstName U1a
SYMATTR SpiceLine VDD={Vcc} SPEED=1.0  TRIPDT=5e-9
SYMBOL diode -720 352 R270
WINDOW 0 15 -7 VTop 0
WINDOW 3 -22 29 VBottom 0
SYMATTR InstName D4
SYMATTR Value 1N914
SYMBOL diode -720 128 R270
WINDOW 0 16 -5 VTop 0
WINDOW 3 45 94 VBottom 0
SYMATTR InstName D6
SYMATTR Value 1N914
SYMBOL cap -880 224 R180
WINDOW 0 17 55 Left 0
WINDOW 3 19 12 Left 0
SYMATTR InstName C6
SYMATTR Value 1n
SYMBOL res -880 240 R0
WINDOW 0 -44 63 Left 0
WINDOW 3 32 47 Left 0
SYMATTR InstName Rsc
SYMATTR Value 1e2
SYMBOL LED -480 240 R0
WINDOW 3 24 72 Invisible 0
WINDOW 0 -18 3 Left 0
SYMATTR Value TLSV5100RED
SYMATTR InstName D7
SYMATTR Description Diode
SYMATTR Type diode
SYMBOL Dig_Add\\CD4xxx\\cd4093b -544 160 R0
WINDOW 3 -57 117 Left 0
SYMATTR InstName U1b
SYMATTR SpiceLine VDD={Vcc} SPEED=1.0  TRIPDT=5e-9
SYMBOL Dig_Add\\CD4xxx\\cd4093b -480 32 R0
WINDOW 3 -44 118 Left 0
SYMATTR InstName U1c
SYMATTR SpiceLine VDD={Vcc} SPEED=1.0  TRIPDT=5e-9
SYMBOL Dig_Add\\CD4xxx\\cd4093b -304 48 R0
WINDOW 3 -36 118 Left 0
SYMATTR InstName U1d
SYMATTR SpiceLine VDD={Vcc} SPEED=1.0  TRIPDT=5e-9
SYMBOL res -496 352 R90
WINDOW 0 13 106 VBottom 0
WINDOW 3 -12 9 VTop 0
SYMATTR InstName R1
SYMATTR Value 1k
SYMATTR SpiceLine tol=1 pwr=0.1
SYMBOL zener -928 368 R180
WINDOW 0 47 33 Left 0
WINDOW 3 24 0 Invisible 0
SYMATTR InstName Dz12
SYMATTR Value BZX84C12L
SYMBOL res -128 96 R90
WINDOW 0 0 56 VBottom 0
WINDOW 3 32 56 VTop 0
SYMATTR InstName R2
SYMATTR Value 10k
SYMBOL cap -128 256 R0
WINDOW 0 24 12 Left 0
WINDOW 3 22 60 Left 0
SYMATTR InstName C3
SYMATTR Value 10n
SYMBOL cap 256 272 R0
WINDOW 0 24 13 Left 0
WINDOW 3 22 61 Left 0
SYMATTR InstName C5
SYMATTR Value 5n
SYMBOL Robertugo\\SwTime -816 160 R270
WINDOW 39 8 49 VCenter 0
WINDOW 3 69 -36 VRight 0
WINDOW 40 -22 67 VCenter 0
SYMATTR SpiceLine Ton=0
SYMATTR SpiceLine2 Toff=5m
SYMATTR InstName U2
TEXT -1096 56 Left 0 !.tran 0 100m 0 10u startup uic
TEXT -128 240 Right 0 ;TqueVacío=On
TEXT 224 392 Left 0 ;(C5=220u)
TEXT -704 56 Left 0 !.Param Vcc=5
