Version 4
SHEET 1 880 680
WIRE -960 -448 -992 -448
WIRE -832 -448 -880 -448
WIRE -240 -448 -592 -448
WIRE -128 -448 -240 -448
WIRE -96 -448 -128 -448
WIRE -464 -400 -592 -400
WIRE -432 -400 -464 -400
WIRE -464 -384 -464 -400
WIRE -560 -352 -592 -352
WIRE -560 -336 -560 -352
WIRE -992 -288 -992 -448
WIRE -464 -288 -464 -304
WIRE -240 -208 -240 -448
WIRE -128 -208 -128 -448
WIRE -992 -192 -992 -224
WIRE -992 -192 -1040 -192
WIRE -992 -176 -992 -192
WIRE -992 -32 -992 -96
WIRE -784 -32 -784 -320
WIRE -784 -32 -992 -32
WIRE -240 -32 -240 -144
WIRE -240 -32 -784 -32
WIRE -128 -32 -128 -144
WIRE -128 -32 -240 -32
WIRE -128 0 -128 -32
FLAG -464 -288 0
FLAG -96 -448 OUT
IOPIN -96 -448 Out
FLAG -1040 -192 IN
IOPIN -1040 -192 In
FLAG -128 0 0
FLAG -432 -400 DUTY
IOPIN -432 -400 In
FLAG -560 -336 0
SYMBOL voltage -992 -192 R0
WINDOW 123 0 0 Left 0
WINDOW 39 0 0 Left 0
SYMATTR InstName Vin
SYMATTR Value 10V
SYMBOL voltage -464 -400 R0
WINDOW 123 48 96 Left 0
WINDOW 39 0 0 Left 0
WINDOW 0 48 32 Left 0
WINDOW 3 48 64 Left 0
SYMATTR InstName Vbias
SYMATTR Value 0.4
SYMBOL ind2 -976 -432 R270
WINDOW 0 32 56 VTop 0
WINDOW 3 4 56 VBottom 0
SYMATTR InstName L1
SYMATTR Value 100µH
SYMBOL cap -256 -208 R0
SYMATTR InstName C1
SYMATTR Value 100µF
SYMBOL res2 -144 -208 R0
SYMATTR InstName R1
SYMATTR Value 10
SYMBOL res2 -1008 -288 R0
SYMATTR InstName Rlf
SYMATTR Value 10m
SYMBOL BOOST-CCM-VM-AC -656 -416 R0
SYMATTR InstName X2
TEXT -1128 88 Left 0 !.DC Vbias 0.01 0.9 0.01
TEXT -704 -192 Left 0 ;TR DC model:\nA=Active\nP1,2=pasive\nC=Common
TEXT -920 -632 Left 0 ;BOOST DC transfer V(out)/V(in) (function of duty cycle D)
TEXT -1120 16 Left 0 ;The sweep source must be named "Vname" otherwise .DC directive\nwill not recognize the sweep source (eg. "BIAS" is not recognized)
RECTANGLE Normal 16 112 -1160 -656
