Version 4
SHEET 1 880 680
WIRE 176 48 16 48
WIRE 304 48 256 48
WIRE 16 80 16 48
WIRE 304 96 304 48
WIRE 272 160 144 160
WIRE 16 192 16 160
WIRE 144 192 144 160
WIRE 304 192 304 176
WIRE 144 304 144 272
FLAG 16 192 0
FLAG 304 192 0
FLAG 144 304 0
FLAG 144 160 Ctl
FLAG 304 48 out
SYMBOL voltage 16 64 R0
WINDOW 123 0 0 Left 0
WINDOW 39 0 0 Left 0
SYMATTR InstName V1
SYMATTR Value 10
SYMBOL res 272 32 R90
WINDOW 0 5 56 VBottom 0
WINDOW 3 26 56 VTop 0
SYMATTR InstName R1
SYMATTR Value 1K
SYMBOL voltage 144 176 R0
WINDOW 123 0 0 Left 0
WINDOW 39 0 0 Left 0
SYMATTR InstName V2
SYMATTR Value PULSE(0 1 0 0.5m 0.5m 0)
SYMBOL Rctl 304 128 R0
SYMATTR Value2 10K
SYMATTR InstName X1
TEXT 384 224 Left 0 !.tran 1m
TEXT 384 120 Left 0 !; 0 < V(Ctl) < 1\n; 0.001*10K < R < 10K
