Version 4
SHEET 1 2260 3204
TEXT 2064 3176 Left 0 ;SHEET:
TEXT 1888 3176 Left 0 ;SIZE:
TEXT 1616 3016 Left 0 ;DESIGN TITLE:
TEXT 1616 2968 Left 0 ;COMPANY:
TEXT 2176 3096 Left 0 ;REV:
TEXT 1616 3096 Left 0 ;AUTHOR:
TEXT 2168 3176 Left 0 ;1 of 1
TEXT 1976 3176 Left 0 ;A3
TEXT 1800 2968 Left 0 ;<name>
TEXT 2192 3128 Left 0 ;1
TEXT 1888 3096 Left 0 ;DRAWING NUMBE
TEXT 1888 3128 Left 0 ;<number>
TEXT 1616 3128 Left 0 ;<name>
TEXT 1616 3176 Left 0 ;DATE:
TEXT 1800 3016 Left 0 ;<title1>
TEXT 1800 3048 Left 0 ;<title2>
TEXT 1728 3176 Left 0 ;<date>
RECTANGLE Normal 0 0 2256 3200
RECTANGLE Normal 2256 3200 2048 3152
RECTANGLE Normal 2048 3200 1872 3152
RECTANGLE Normal 2256 3072 1600 2992
RECTANGLE Normal 2256 2992 1600 2944
RECTANGLE Normal 1872 3200 1600 3152
RECTANGLE Normal 2256 3152 2160 3072
RECTANGLE Normal 1872 3152 1600 3072
RECTANGLE Normal 2160 3152 1872 3072
