Version 4
SHEET 1 3204 2260
TEXT 3008 2232 Left 0 ;SHEET:
TEXT 2832 2232 Left 0 ;SIZE:
TEXT 2560 2072 Left 0 ;DESIGN TITLE:
TEXT 2560 2024 Left 0 ;COMPANY:
TEXT 3120 2152 Left 0 ;REV:
TEXT 2560 2152 Left 0 ;AUTHOR:
TEXT 3112 2232 Left 0 ;1 of 1
TEXT 2920 2232 Left 0 ;A3
TEXT 2744 2024 Left 0 ;<name>
TEXT 3136 2184 Left 0 ;1
TEXT 2832 2152 Left 0 ;DRAWING NUMBER
TEXT 2832 2184 Left 0 ;<number>
TEXT 2560 2184 Left 0 ;<name>
TEXT 2560 2232 Left 0 ;DATE:
TEXT 2744 2072 Left 0 ;<title1>
TEXT 2744 2104 Left 0 ;<title2>
TEXT 2672 2232 Left 0 ;<date>
RECTANGLE Normal 0 0 3200 2256
RECTANGLE Normal 3200 2256 2992 2208
RECTANGLE Normal 2992 2256 2816 2208
RECTANGLE Normal 3200 2128 2544 2048
RECTANGLE Normal 3200 2048 2544 2000
RECTANGLE Normal 2816 2256 2544 2208
RECTANGLE Normal 3200 2208 3104 2128
RECTANGLE Normal 2816 2208 2544 2128
RECTANGLE Normal 3104 2208 2816 2128
