Version 4
SHEET 1 1604 1132
TEXT 1408 1104 Left 0 ;SHEET:
TEXT 1232 1104 Left 0 ;SIZE:
TEXT 960 944 Left 0 ;DESIGN TITLE:
TEXT 960 896 Left 0 ;COMPANY:
TEXT 1520 1024 Left 0 ;REV:
TEXT 960 1024 Left 0 ;AUTHOR:
TEXT 1512 1104 Left 0 ;1 of 1
TEXT 1320 1104 Left 0 ;A5
TEXT 1144 896 Left 0 ;<name>
TEXT 1536 1056 Left 0 ;1
TEXT 1232 1024 Left 0 ;DRAWING NUMBER
TEXT 1232 1056 Left 0 ;<number>
TEXT 960 1056 Left 0 ;<name>
TEXT 960 1104 Left 0 ;DATE:
TEXT 1144 944 Left 0 ;<title1>
TEXT 1144 976 Left 0 ;<title2>
TEXT 1072 1104 Left 0 ;<date>
RECTANGLE Normal 0 0 1600 1128
RECTANGLE Normal 1600 1128 1392 1080
RECTANGLE Normal 1392 1128 1216 1080
RECTANGLE Normal 1600 1000 944 920
RECTANGLE Normal 1600 920 944 872
RECTANGLE Normal 1216 1128 944 1080
RECTANGLE Normal 1600 1080 1504 1000
RECTANGLE Normal 1216 1080 944 1000
RECTANGLE Normal 1504 1080 1216 1000
