Version 4
SHEET 1 880 680
WIRE -208 432 -208 80
WIRE -208 544 -208 512
WIRE -208 560 -208 544
WIRE -144 544 -208 544
WIRE -144 544 -144 16
WIRE -112 16 -144 16
WIRE -112 80 -208 80
WIRE 128 144 112 144
WIRE 128 176 112 176
WIRE 128 208 112 208
WIRE 128 240 112 240
WIRE 128 272 112 272
WIRE 128 304 112 304
WIRE 128 336 112 336
WIRE 128 368 112 368
WIRE 128 432 112 432
WIRE 128 464 112 464
WIRE 128 496 112 496
WIRE 304 544 -144 544
WIRE 304 544 304 64
WIRE 336 544 336 32
WIRE 368 32 336 32
WIRE 368 64 304 64
WIRE 368 400 112 400
WIRE 368 400 368 96
WIRE 624 160 592 160
WIRE 624 192 592 192
WIRE 624 224 592 224
WIRE 624 256 592 256
WIRE 624 288 592 288
WIRE 624 320 592 320
WIRE 624 352 592 352
WIRE 624 384 592 384
WIRE 624 544 336 544
WIRE 624 544 624 384
FLAG -208 560 0
SYMBOL Dig_Add\\CD4xxx\\CD4040B 0 -48 R0
SYMATTR InstName U1
SYMBOL Dig_Add\\CD4xxx\\cd4017b 480 -32 R0
SYMATTR InstName U2
SYMBOL voltage -208 416 R0
WINDOW 3 41 144 Left 0
WINDOW 123 0 0 Left 0
WINDOW 39 0 0 Left 0
SYMATTR InstName V1
SYMATTR Value PULSE(0 {Vdd} 0 .5n .5n 140n 280n)
TEXT 120 -32 Left 0 !.param Vdd=15
TEXT 126 4 Left 0 !.tran 2m
