Version 4
SHEET 1 1120 888
WIRE -224 128 -224 80
WIRE -224 240 -224 208
WIRE -112 80 -224 80
WIRE 32 80 -32 80
WIRE 80 80 32 80
WIRE 80 112 80 80
WIRE 80 240 80 192
WIRE 320 80 304 80
WIRE 384 80 320 80
WIRE 528 80 464 80
WIRE 576 80 528 80
WIRE 576 112 576 80
WIRE 576 240 576 192
FLAG -224 240 0
FLAG 80 240 0
FLAG 576 240 0
FLAG -224 80 vtest
FLAG 320 80 vtest
FLAG 32 80 v1
FLAG 528 80 v2
SYMBOL voltage -224 112 R0
WINDOW 123 0 0 Left 0
WINDOW 39 0 0 Left 0
SYMATTR InstName V1
SYMATTR Value 10
SYMBOL res -128 96 R270
WINDOW 0 32 56 VTop 0
WINDOW 3 0 56 VBottom 0
SYMATTR InstName R1
SYMATTR Value .1
SYMBOL Misc\\xvaristor 64 96 R0
SYMATTR InstName RV1
SYMATTR Value V18AUMLA1206
SYMBOL res 368 96 R270
WINDOW 0 32 56 VTop 0
WINDOW 3 0 56 VBottom 0
SYMATTR InstName R2
SYMATTR Value .1
SYMBOL Misc\\xvaristor 560 96 R0
SYMATTR InstName RV2
SYMATTR Value V18MLA1210
TEXT -224 -56 Left 0 !.include MLseries_ltspice.lib
TEXT -224 -24 Left 0 !.dc V1 1 30 .1
TEXT -224 8 Left 0 !.op
TEXT -256 -256 Left 0 ;* http://www.littlefuse.com/data/en/PSPICE_Models/MLseries.lib\n* http://www.littlefuse.com/data/en/Data_Sheets/AUML.pdf\n* Changes of the original file MLseries.lib:  ^ replaced with **\n* This solves an compatibility problem with LTspice\n* Helmut Sennewald, 10.8.2005
TEXT -256 312 Left 0 ;* V3.5MLA0603 V5.5MLA0603 V9MLA0603 V14MLA0603 \n* V18MLA0603 V26MLA0603 V30MLA0603 \n*\n* V3.5MLA0805 V5.5MLA0805 V14MLA0805 V18MLA0805\n* V26MLA0805 \n*\n* V3.5MLA0805L V5.5MLA0805L V9MLA0805L V12MLA0805L \n* V14MLA0805L V18MLA0805L V26MLA0805L V30MLA0805L\n*\n* V3.5MLA1206 V5.5MLA1206 V14MLA1206 V18MLA1206\n* V26MLA1206 V33MLA1206 V42MLA1206 V56MLA1206\n* V68MLA1206 \n*\n* V18MLA1210 V26MLA1210 V30MLA1210 V48MLA1210 \n* V60MLA1210 V85MLA1210 V120MLA1210 \n*\n* V30MLA1210L V48MLA1210L\n*\n* V18AUMLA2220 V18AUMLA1812 V18AUMLA1210 V18AUMLA1206\n*\n* V18MLE0603 V18MLE0805 V18MLE0805L V18MLE1206
