Version 4
SHEET 1 880 772
WIRE 160 64 0 64
WIRE 272 64 160 64
WIRE 400 64 272 64
WIRE 0 112 0 64
WIRE 160 112 160 64
WIRE 272 112 272 64
WIRE 400 144 400 64
WIRE 160 208 160 192
WIRE 224 208 160 208
WIRE 272 208 272 176
WIRE 272 208 224 208
WIRE 0 256 0 192
WIRE 160 256 160 208
WIRE 400 288 400 224
WIRE 480 288 400 288
WIRE -128 304 -176 304
WIRE -64 304 -128 304
WIRE 400 304 400 288
WIRE 400 304 224 304
WIRE 480 304 480 288
WIRE 400 352 400 304
WIRE -176 368 -176 304
WIRE 0 384 0 352
WIRE 160 384 160 352
WIRE -176 496 -176 448
WIRE 0 496 0 464
WIRE 80 496 0 496
WIRE 160 496 160 464
WIRE 160 496 80 496
WIRE 80 512 80 496
WIRE 80 624 80 592
WIRE 400 624 400 432
WIRE 400 624 80 624
FLAG 480 304 0
FLAG -176 496 0
FLAG -128 304 Vin
FLAG 224 208 Vout
SYMBOL res -16 96 R0
WINDOW 0 37 28 Left 0
WINDOW 3 37 64 Left 0
SYMATTR InstName R1
SYMATTR Value 2500
SYMBOL res 144 96 R0
WINDOW 0 36 30 Left 0
WINDOW 3 36 65 Left 0
SYMATTR InstName R2
SYMATTR Value 2500
SYMBOL voltage 400 128 R0
WINDOW 123 0 0 Left 0
WINDOW 39 0 0 Left 0
WINDOW 0 43 41 Left 0
WINDOW 3 42 78 Left 0
SYMATTR InstName V1
SYMATTR Value 15
SYMBOL voltage 400 336 R0
WINDOW 123 0 0 Left 0
WINDOW 39 0 0 Left 0
WINDOW 0 44 48 Left 0
WINDOW 3 45 82 Left 0
SYMATTR InstName V2
SYMATTR Value 15
SYMBOL npn -64 256 R0
WINDOW 3 23 51 Left 0
WINDOW 0 64 18 Left 0
SYMATTR Value 2N5551C
SYMATTR InstName Q1
SYMBOL npn 224 256 M0
WINDOW 3 23 52 Left 0
WINDOW 0 60 23 Left 0
SYMATTR Value 2N5551C
SYMATTR InstName Q2
SYMBOL res -16 368 R0
SYMATTR InstName R3
SYMATTR Value 225
SYMBOL res 144 368 R0
SYMATTR InstName R4
SYMATTR Value 225
SYMBOL current 80 512 R0
WINDOW 123 0 0 Left 0
WINDOW 39 0 0 Left 0
WINDOW 0 41 27 Left 0
WINDOW 3 36 62 Left 0
SYMATTR InstName I1
SYMATTR Value 2mA
SYMBOL cap 256 112 R0
WINDOW 3 29 49 Left 0
SYMATTR Value 100pF
SYMATTR InstName C1
SYMBOL voltage -176 352 R0
WINDOW 123 0 0 Left 0
WINDOW 39 0 0 Left 0
WINDOW 0 40 45 Left 0
WINDOW 3 44 80 Left 0
SYMATTR InstName V3
SYMATTR Value 0
TEXT -488 96 Left 0 !;op
TEXT -248 -56 Left 0 ;Demonstration Circuit swept and stepped DC
TEXT -488 136 Left 0 !.dc V3 -2.0 2.0 0.01
TEXT -488 176 Left 0 !.step I1 1mA 3mA 0.5mA
TEXT -472 624 Left 0 ;input is swept from -2V to +2V
TEXT -472 656 Left 0 ;tail current is stepped from 1 mA to 3 mA
TEXT -472 688 Left 0 ;differential output is plotted
TEXT -488 56 Left 0 !.include Cordell_Mods
TEXT 208 752 Left 0 ;copyright Cordell Audio 12/03/2010
