Version 4
SHEET 1 6376 1492
WIRE 1632 928 1520 928
WIRE 1296 928 1232 928
WIRE 1712 928 1824 928
WIRE 1824 928 1824 1024
WIRE 1824 1184 1696 1184
WIRE 1632 1200 1536 1200
WIRE 1376 1200 1296 1200
WIRE 1104 1200 992 1200
WIRE 1632 1168 1520 1168
WIRE 1520 928 1376 928
WIRE 1296 1056 1296 1024
WIRE 1296 1024 1824 1024
WIRE 1824 1024 1824 1184
WIRE 1296 1120 1296 1200
WIRE 1296 1200 1184 1200
WIRE 1536 1280 1536 1200
WIRE 1536 1200 1456 1200
WIRE 1536 1344 1536 1392
WIRE 800 1200 592 1200
WIRE 592 1200 592 1232
WIRE 592 1312 592 1392
WIRE 1824 1184 1888 1184
WIRE 1888 1184 1904 1184
WIRE 1664 1152 1664 1120
WIRE 1664 1120 1696 1120
WIRE 1664 1216 1664 1296
WIRE 1696 1120 1728 1120
WIRE 1664 1296 1696 1296
WIRE 1696 1296 1728 1296
WIRE 1024 976 1024 944
WIRE 1024 944 1056 944
WIRE 896 976 896 944
WIRE 896 944 928 944
WIRE 928 944 960 944
WIRE 1056 944 1088 944
WIRE 1024 1056 1024 1088
WIRE 896 1056 896 1088
WIRE 992 1280 992 1200
WIRE 992 1200 880 1200
WIRE 992 1344 992 1392
WIRE 1520 1168 1520 928
FLAG 1232 928 GND
FLAG 1536 1392 GND
FLAG 592 1392 GND
FLAG 1888 1184 out
FLAG 1696 1120 VCC
FLAG 1696 1296 VSS
FLAG 928 944 VCC
FLAG 1056 944 VSS
FLAG 1024 1088 GND
FLAG 896 1088 GND
FLAG 992 1392 GND
SYMBOL voltage 592 1216 R0
WINDOW 3 24 132 Left 0
WINDOW 39 0 0 Left 0
WINDOW 123 24 104 Left 0
SYMATTR Value PULSE(0 0.5 0 1n 1n 0.5m 1m)
SYMATTR Value2 AC 0.5
SYMATTR InstName V1
SYMBOL voltage 896 960 R0
WINDOW 39 0 0 Left 0
WINDOW 123 0 0 Left 0
SYMATTR InstName V2
SYMATTR Value 15
SYMBOL voltage 1024 960 R0
WINDOW 39 0 0 Left 0
WINDOW 123 0 0 Left 0
SYMATTR InstName V3
SYMATTR Value -15
SYMBOL Opamps\\UniversalOpamp 1664 1184 R0
WINDOW 123 16 44 Left 0
SYMATTR Value2 Avol=1e5 GBW={GBW} Slew={GBW/2}
SYMATTR InstName U1
SYMATTR SpiceModel level3a
SYMBOL D:\\WUTemp\\Yahoo_test\\57\\r_mc_1 1472 1184 R90
WINDOW 0 6 56 VBottom 0
WINDOW 38 25 56 VTop 0
WINDOW 39 56 67 VTop 0
SYMATTR InstName R1
SYMATTR SpiceModel R_minmax_bin_4
SYMATTR SpiceLine R=6.8k Tol=1 Seed=5
SYMBOL D:\\WUTemp\\Yahoo_test\\57\\r_mc_1 1392 912 R90
WINDOW 0 6 56 VBottom 0
WINDOW 38 25 56 VTop 0
WINDOW 39 55 46 VTop 0
SYMATTR InstName R5
SYMATTR SpiceModel R_minmax_bin_4
SYMATTR SpiceLine R=10k Tol=1 Seed=1
SYMBOL D:\\WUTemp\\Yahoo_test\\57\\r_mc_1 1728 912 R90
WINDOW 0 6 56 VBottom 0
WINDOW 38 25 56 VTop 0
WINDOW 39 55 40 VTop 0
SYMATTR InstName R4
SYMATTR SpiceModel R_minmax_bin_4
SYMATTR SpiceLine R=10k Tol=1 Seed=2
SYMBOL D:\\WUTemp\\Yahoo_test\\57\\r_mc_1 896 1184 R90
WINDOW 0 6 56 VBottom 0
WINDOW 38 25 56 VTop 0
WINDOW 39 55 46 VTop 0
SYMATTR InstName R3
SYMATTR SpiceModel R_minmax_bin_4
SYMATTR SpiceLine R=24k Tol=1 Seed=3
SYMBOL D:\\WUTemp\\Yahoo_test\\57\\r_mc_1 1200 1184 R90
WINDOW 0 6 56 VBottom 0
WINDOW 38 25 56 VTop 0
WINDOW 39 55 46 VTop 0
SYMATTR InstName R2
SYMATTR SpiceModel R_minmax_bin_4
SYMATTR SpiceLine R=24k Tol=1 Seed=4
SYMBOL D:\\WUTemp\\Yahoo_test\\57\\c_mc_1 1520 1280 R0
WINDOW 39 38 65 Left 0
SYMATTR SpiceLine C=1n Tol=5 seed=6
SYMATTR InstName C1
SYMATTR SpiceModel C_minmax_bin_4
SYMBOL D:\\WUTemp\\Yahoo_test\\57\\c_mc_1 1280 1056 R0
WINDOW 39 26 68 Left 0
SYMATTR SpiceLine C=1n Tol=5 seed=7
SYMATTR InstName C2
SYMATTR SpiceModel C_minmax_bin_4
SYMBOL D:\\WUTemp\\Yahoo_test\\57\\c_mc_1 976 1280 R0
WINDOW 39 26 68 Left 0
SYMATTR SpiceLine C=1n Tol=5 seed=8
SYMATTR InstName C3
SYMATTR SpiceModel C_minmax_bin_4
TEXT 624 888 Left 0 !.AC dec 100 100 100000
TEXT 624 936 Left 0 ;.tran 0 2m 0 1u
TEXT 624 800 Left 0 !.step param GBW list 0.5e6 1e6 10e6\n.step param run 0 256 1
TEXT 632 376 Left 0 ;Combined MonteCarlo Simulation and Stepped Simulation\n \nDifferent variation types can be used. (Right click on the component.)\nThis example simulates with all 2**N combinations of N components.\nWe called this binary minmax variation. Each component needs a\ndifferent seed value from 1 to N. "run=0" simulates with the nominal values.\n.step param 0 2**N 1    is required for all 2**N combinations.\n \nThis schematic includes random functions from Jim Meech's file RMC.lib and CMC.lib.\nThe files are in the file "Monte carlo tool_box2.zip".
TEXT 1784 1344 Left 0 ;5%
TEXT 1224 1344 Left 0 ;5%
TEXT 1528 1096 Left 0 ;5%
TEXT 1376 904 Left 0 ;1%
TEXT 1720 904 Left 0 ;1%
TEXT 888 1176 Left 0 ;1%
TEXT 1184 1176 Left 0 ;1%
TEXT 1448 1176 Left 0 ;1%
TEXT 1056 800 Left 0 ;GBW is gain bandwidth product of ppamp \n"run" is used by Monte Carlo functions.
TEXT 624 688 Left 0 !.include RMC.lib\n.include CMC.lib
