Version 4
SHEET 1 1536 984
WIRE -1024 -368 -1056 -368
WIRE -912 -368 -944 -368
WIRE -864 -368 -912 -368
WIRE -752 -368 -784 -368
WIRE -832 -272 -832 -288
WIRE -912 -256 -912 -368
WIRE -864 -256 -912 -256
WIRE -752 -240 -752 -368
WIRE -752 -240 -800 -240
WIRE -656 -240 -752 -240
WIRE -560 -240 -656 -240
WIRE -448 -240 -560 -240
WIRE -864 -224 -1008 -224
WIRE -560 -208 -560 -240
WIRE -832 -192 -832 -208
WIRE -448 -192 -448 -240
WIRE -1376 -176 -1376 -208
WIRE -1008 -176 -1008 -224
WIRE -560 -96 -560 -128
WIRE -448 -96 -448 -128
WIRE -1008 -80 -1008 -96
WIRE -1376 -64 -1376 -96
FLAG -1376 -208 5V
FLAG -1008 -224 sig
FLAG -832 -288 5V
FLAG -560 -96 0
FLAG -656 -240 out
FLAG -1376 -64 0
FLAG -832 -192 0
FLAG -1008 -80 0
FLAG -1056 -368 0
FLAG -448 -96 0
SYMBOL res -544 -224 M0
WINDOW 0 36 40 Invisible 0
WINDOW 3 -52 60 Left 0
SYMATTR InstName R1
SYMATTR Value 5k
SYMBOL voltage -1376 -192 R0
SYMATTR InstName V1
SYMATTR Value 5
SYMBOL voltage -1008 -192 R0
WINDOW 123 24 132 Left 0
WINDOW 39 24 160 Left 0
SYMATTR Value2 AC 1
SYMATTR SpiceLine Rser=100
SYMATTR InstName V4
SYMATTR Value PULSE(2 3 0 .1u .1u 50u 100u)
SYMBOL res -880 -352 R270
WINDOW 0 32 56 VTop 0
WINDOW 3 0 56 VBottom 0
SYMATTR InstName R2
SYMATTR Value 10 AC=1T
SYMBOL res -1040 -352 R270
WINDOW 0 32 56 VTop 0
WINDOW 3 0 56 VBottom 0
SYMATTR InstName R3
SYMATTR Value 2k
SYMBOL cap -464 -192 R0
SYMATTR InstName C1
SYMATTR Value 5p
SYMBOL Robertugo\\opamp5 -832 -304 R0
SYMATTR InstName U1
SYMATTR SpiceModel MCP6021
TEXT -1008 -448 Left 0 ;Voltage Follower
TEXT -1392 -472 Left 0 !.op
TEXT -1392 -440 Left 0 !.tran 0 200u 0 .1u
TEXT -1400 -344 Left 0 ;.options ptrantau=1u
TEXT -1400 -320 Left 0 !.options cshunt=1e-16
TEXT -1392 -408 Left 0 ;.ac dec 100 1 100meg
RECTANGLE Normal -1136 -280 -1424 -376
