Version 4
SHEET 1 1912 680
WIRE 192 320 192 272
WIRE 192 272 -208 272
WIRE -208 272 -208 352
WIRE -208 432 -208 480
WIRE 192 480 192 416
WIRE 112 400 96 400
WIRE 112 368 96 368
WIRE 112 336 96 336
WIRE 272 336 288 336
WIRE 272 368 288 368
WIRE 272 400 288 400
WIRE 192 480 -208 480
WIRE -208 480 -208 512
WIRE 192 272 416 272
WIRE 416 272 416 320
WIRE 416 416 416 480
WIRE 416 480 192 480
WIRE 496 336 512 336
WIRE 496 368 512 368
WIRE 656 320 656 272
WIRE 656 272 416 272
WIRE 656 416 656 480
WIRE 656 480 416 480
WIRE 896 320 896 272
WIRE 896 416 896 480
WIRE 896 272 656 272
WIRE 896 480 656 480
WIRE 192 -144 192 -192
WIRE 192 -192 -208 -192
WIRE -288 -592 -288 -544
WIRE 192 16 192 -48
WIRE 112 -64 96 -64
WIRE 112 -96 96 -96
WIRE 112 -128 96 -128
WIRE 272 -128 288 -128
WIRE 272 -96 288 -96
WIRE 272 -64 288 -64
WIRE 192 16 -208 16
WIRE 192 -192 416 -192
WIRE 416 -192 416 -144
WIRE 416 -48 416 16
WIRE 416 16 192 16
WIRE 496 -128 512 -128
WIRE 496 -96 512 -96
WIRE 656 -144 656 -192
WIRE 656 -192 416 -192
WIRE 656 -48 656 16
WIRE 656 16 416 16
WIRE 896 -144 896 -192
WIRE 896 -48 896 16
WIRE 896 -192 656 -192
WIRE 896 16 656 16
WIRE 496 -64 512 -64
WIRE 496 400 512 400
WIRE 736 336 752 336
WIRE 736 368 752 368
WIRE 112 -688 112 -720
WIRE 112 -592 112 -544
WIRE 112 -720 -288 -720
WIRE -288 -720 -288 -672
WIRE -208 -32 -208 16
WIRE -208 -192 -208 -112
WIRE -208 16 -208 32
WIRE 736 -128 752 -128
WIRE 736 -96 752 -96
FLAG -208 512 0
FLAG -288 -544 0
FLAG 112 -544 0
FLAG -208 32 0
SYMBOL voltage -208 336 R0
WINDOW 123 0 0 Left 0
WINDOW 39 0 0 Left 0
WINDOW 3 20 117 Left 0
SYMATTR Value PULSE(0 230 0 1m 1m 10 20)
SYMATTR InstName V11
SYMBOL voltage -288 -688 R0
WINDOW 123 0 0 Left 0
WINDOW 39 0 0 Left 0
WINDOW 3 20 117 Left 0
SYMATTR Value PULSE(0 230 0 1m 1m 10 20)
SYMATTR InstName V0
SYMBOL voltage -208 -128 R0
WINDOW 123 0 0 Left 0
WINDOW 39 0 0 Left 0
WINDOW 3 20 117 Left 0
SYMATTR Value PULSE(0 230 0 1m 1m 10 20)
SYMATTR InstName V1
SYMBOL Misc\\lamp0 896 -96 R0
SYMATTR InstName U5
SYMBOL Misc\\lamp2 656 -96 R0
SYMATTR InstName U6
SYMBOL Misc\\lamp3 416 -96 R0
SYMATTR InstName U7
SYMBOL Misc\\lamp6 192 -96 R0
SYMATTR InstName U8
SYMBOL Misc\\lamp0 896 368 R0
SYMATTR InstName U1
SYMATTR Value Lamp6
SYMATTR SpiceModel nc3 nc4 nc5 nc6 nc7 nc8
SYMBOL Misc\\lamp2 656 368 R0
SYMATTR InstName U2
SYMATTR Value Lamp6
SYMATTR SpiceModel nb5 nb6 nb7 nb8
SYMBOL Misc\\lamp3 416 368 R0
SYMATTR InstName U3
SYMATTR Value Lamp6
SYMATTR SpiceModel na6 na7 na8
SYMBOL Misc\\lamp6 192 368 R0
SYMATTR InstName U4
SYMBOL Misc\\lamp 112 -640 R0
SYMATTR InstName U9
TEXT -336 -1032 Left 0 !.TRAN 50
TEXT -344 -1112 Left 0 !.include elamp_models.lib
TEXT 600 -232 Left 0 ;lamp2.asy
TEXT 376 -232 Left 0 ;lamp3.asy
TEXT 144 -232 Left 0 ;lamp6.asy
TEXT 840 -232 Left 0 ;lamp0.asy
TEXT -224 128 Left 0 ;All three symbols can use the same 6-ouput model LAMP230V100W6, if the missing pins were added \nin the line "SpiceModel" of the instance U11, U12 and U13. \nBe aware that the additional nodenames must be unique in the whole schematic.
TEXT -216 -280 Left 0 ;The traditional symbols use a subcircuit with exactly the same number of nodes as the symbol has nodes.
TEXT 432 -864 Left 0 ;The model uses only one  thermal resistor element, \n the filament to case Rth. \nThe basic formula:\nTemperature = TAmbient + (TotPower-OptPower) * Rth1\nRFilament = RCOLD*(Tfilament/Tcold)^1.2\nThe ambient temperature TEMP is also included in the model.\nAll parameter interface temperatures are in degree Celsius.\n \nThe lamp models can provide up to six control outputs.\nR: resistance  \nP: electrical power \nL: light power \nTf: temperature of filament   \nTb: temperature of bulb     *not supported\nTs: temperature of socket  *not supported
TEXT 232 -1152 Left 0 ;SPICE MODEL FOR LAMPS.   Helmut Sennewald  12/14/2003\n \nCalling Parameters:\nUNOM: nominal Voltage\nPNOM: nominal Power\nRCOLD: unpowered(cold) resistance at TCOLD\nTCOLD: temperature where RCOLD was measured, e.g. 25 degree Celsius\nTAU: time constant of filament temperature
TEXT 592 232 Left 0 ;lamp2.asy
TEXT 368 232 Left 0 ;lamp3.asy
TEXT 136 232 Left 0 ;lamp6.asy
TEXT 832 232 Left 0 ;lamp0.asy
TEXT 56 -760 Left 0 ;lamp.asy
TEXT -248 -768 Left 0 ;THE BASIC CIRCUIT
TEXT -216 -344 Left 0 ;LAMPS WITH ENHANCED OUTPUTS
TEXT -336 -848 Left 0 ;This symbol "Lamp.asy" requires the model file "lamp.sub"\nin the LTSPICE directory "sub" or in your working directory.
TEXT -336 -1144 Left 0 ;Load models of the symbols  lamp0,2,3,6.asy:
