Version 4
SHEET 1 880 680
WIRE 0 224 0 192
WIRE 0 192 48 192
WIRE 96 192 96 256
WIRE 96 256 112 256
WIRE 112 272 96 272
WIRE 96 272 96 336
WIRE 0 336 0 304
WIRE 48 192 96 192
FLAG 0 336 0
FLAG 48 192 1
FLAG 96 336 0
SYMBOL voltage 0 208 M0
WINDOW 123 0 0 Left 0
WINDOW 39 0 0 Left 0
SYMATTR InstName V1
SYMATTR Value PULSE(0 12 1u 1u 1u 100 1000)
SYMBOL D:\\WUTemp\\Lamp\ model\ analog\\lamp1 112 256 R90
SYMATTR InstName X1
SYMATTR SpiceLine Pn=20  Vn=12
TEXT -386 160 Left 0 !.tran 20
TEXT -392 -160 Left 0 ;This is a hierarchical design to better show how the model is made.\nThe model and the symbol is based on the version from "analogspiceman".\nThe new enhancement allow easy specifying the nominal power \nand voltage rating. The model calculates then all the other parameters.\nYou can also change the time constant to adjust it to your own measurements.\nRight click with the mouse on the lamp to change the watts and the \nvoltage of the lamp.\n                                                    Helmut Sennewald, 10/23/2004
