Version 4
SHEET 1 880 680
WIRE 0 224 0 192
WIRE 0 192 48 192
WIRE 96 192 96 256
WIRE 96 256 112 256
WIRE 112 272 96 272
WIRE 96 272 96 336
WIRE 0 336 0 304
WIRE 48 192 96 192
FLAG 0 336 0
FLAG 48 192 1
FLAG 96 336 0
SYMBOL C:\\Documents\ and\ Settings\\davee\\Desktop\\LTspice\\lamp 112 256 R90
WINDOW 0 -31 -4 VLeft 0
SYMATTR InstName DS1
SYMBOL voltage 0 208 M0
WINDOW 123 0 0 Left 0
WINDOW 39 0 0 Left 0
SYMATTR InstName V1
SYMATTR Value SINE(0 170 60)
TEXT -26 392 Left 0 !.tran 200m uic
