Version 4
SHEET 1 880 680
SYMBOL xtal_param -272 80 R0
SYMATTR InstName X1
TEXT -144 24 Left 0 !.param Rs=65\n.param fs=1e7\n.param Q=1.0e6
