.subckt am0 11 10
v_am0 11 10 pwl 0.120u .1
+ 0.14u 0.03
+ 0.15u 0.07
+ 0.16u 0.23
+ 0.17u 0.63
+ 0.18u 1.25
+ 0.19u 2.71
+ 0.2u 10.7
+ 0.21u 22.9
+ 0.22u 57.5
+ 0.23u 66.7
+ 0.24u 68
+ 0.25u 70.4
+ 0.26u 180
+ 0.27u 232
+ 0.28u 222
+ 0.29u 482
+ 0.295u 584
+ 0.3u 514
+ 0.305u 603
+ 0.310u 689
+ 0.315u 764
+ 0.32u 830
+ 0.325u 975
+ 0.33u 1059
+ 0.335u 1081
+ 0.34u 1074
+ 0.345u 1069
+ 0.35u 1093
+ 0.355u 1083
+ 0.360u 1068
+ 0.365u 1132
+ 0.370u 1181
+ 0.375u 1157
+ 0.38u 1120
+ 0.385u 1098
+ 0.390u 1098
+ 0.395u 1089
+ 0.4u 1429
+ 0.405u 1644
+ 0.415u 1774
+ 0.425u 1693
+ 0.435u 1663
+ 0.445u 1922
+ 0.455u 2057
+ 0.465u 2048
+ 0.475u 2044
+ 0.485u 1976
+ 0.495u 1960
+ 0.505u 1920
+ 0.515u 1833
+ 0.525u 1852
+ 0.535u 1818
+ 0.545u 1754
+ 0.555u 1720
+ 0.565u 1705
+ 0.575u 1719
+ 0.585u 1712
+ 0.595u 1682
+ 0.605u 1647
+ 0.61u 1635
+ 0.62u 1602
+ 0.63u 1570
+ 0.64u 1544
+ 0.65u 1511
+ 0.66u 1486
+ 0.67u 1456
+ 0.68u 1427
+ 0.69u 1402
+ 0.7u 1369
+ 0.71u 1344
+ 0.72u 1314
+ 0.73u 1290
+ 0.74u 1260
+ 0.75u 1235
+ 0.76u 1211
+ 0.77u 1185
+ 0.78u 1159
+ 0.79u 1134
+ 0.8u 1109
+ 0.81u 1013
+ 0.82u 1060
+ 0.83u 1036
+ 0.84u 1013
+ 0.85u 990
+ 0.86u 968
+ 0.87u 947
+ 0.88u 925
+ 0.89u 908
+ 0.9u 891
+ 0.91u 880
+ 0.92u 869
+ 0.93u 858
+ 0.94u 847
+ 0.95u 837
+ 0.96u 820
+ 0.97u 803
+ 0.98u 785
+ 0.99u 767
+ 1u 748
+ 1.05u 668
+ 1.1u 593
+ 1.15u 535
+ 1.2u 485
+ 1.25u 438
+ 1.3u 397
+ 1.35u 358
+ 1.4u 337
+ 1.45u 312
+ 1.5u 288
+ 1.6u 245
+ 1.65u 223
+ 1.7u 202
+ 1.75u 180
+ 1.8u 159
+ 1.85u 142
+ 1.9u 126
+ 1.95u 114
+ 2u 103
+ 2.1u 90
+ 2.2u 79
+ 2.3u 69
+ 2.4u 62
+ 2.5u 55
+ 2.6u 48
+ 2.7u 43
+ 2.8u 39
+ 2.9u 35
+ 3u 31
+ 3.1u 26
+ 3.1u 22
+ 3.3u 19.2
+ 3.4u 16.6
+ 3.5u 14.6
+ 3.6u 13.5
+ 3.7u 12.3
+ 3.8u 11.1
+ 3.9u 10.3
+ 4u 9.5
+ 4.1u 8.7
+ 4.2u 7.8
+ 4.3u 7.1
+ 4.4u 6.5
+ 4.5u 5.9
+ 4.6u 5.3
+ 4.7u 4.8
+ 4.8u 4.5
+ 4.9u 4.1
+ 5u 3.83
+ 6u 1.75
+ 7u 0.99
+ 8u 0.60
+ 9u 0.380
+ 10u 0.250
+ 11u 0.170
+ 12u 0.120
+ 13u 0.087
+ 14u 0.055
+ 15u 0.049
+ 16u 0.038
+ 17u 0.031
+ 18u 0.024
+ 19u 0.02
+ 20u 0.016
+ 25u 0.0061
+ 30u 0.003
+ 35u 0.0016
+ 40u 0.00094
+ 50u 0.00038
+ 60u 0.00019
+ 80u 0.00007
+ 100u 0.00003
.ends am0
