.subckt am15g 11 10
v_am15g 11 10 pwl
+ 0.295u 0
+ 0.305u 9.2
+ 0.315u 103.9
+ 0.325u 237.9
+ 0.335u 376
+ 0.345u 423
+ 0.350u 466.2
+ 0.360u 501.4
+ 0.370u 642.1
+ 0.380u 686.7
+ 0.390u 694.6
+ 0.400u 976.4
+ 0.410u 1116.2
+ 0.420u 1141.1
+ 0.430u 1033
+ 0.440u 1254.8
+ 0.450u 1470.7
+ 0.460u 1541.6
+ 0.470u 1523.7
+ 0.480u 1569.3
+ 0.490u 1483.4
+ 0.500u 1492.6
+ 0.510u 1529
+ 0.520u 1431
+ 0.530u 1515.4
+ 0.540u 1494.5
+ 0.550u 1504.9
+ 0.570u 1447.1
+ 0.590u 1344.9
+ 0.610u 1431.5
+ 0.630u 1382.1
+ 0.650u 1368.4
+ 0.670u 1341.8
+ 0.690u 1089
+ 0.710u 1269.0
+ 0.718u 973.7
+ 0.724u 1005.4
+ 0.740u 1167.3
+ 0.753u 1150.6
+ 0.758u 1132.9
+ 0.763u 619.8
+ 0.768u 993.3
+ 0.780u 1090.1
+ 0.8u 1042.4
+ 0.816u 818.4
+ 0.824u 765.5
+ 0.832u 883.2
+ 0.84u 925.1
+ 0.86u 943.4
+ 0.88u 899.4
+ 0.905u 721.4
+ 0.915u 643.3
+ 0.925u 665.3
+ 0.93u 389
+ 0.937u 248.9
+ 0.948u 302.2
+ 0.965u 507.7
+ 0.980u 623
+ 0.994u 719.7
+ 1.040u 665.5
+ 1.070u 614.4
+ 1.1u 397.6
+ 1.12u 98.1
+ 1.13u 182.2
+ 1.137u 127.4
+ 1.161u 326.7
+ 1.18u 443.3
+ 1.2u 408.2
+ 1.235u 463.1
+ 1.290u 398.1
+ 1.32u 241.1
+ 1.35u 31.3
+ 1.395u 1.5
+ 1.443u 53.7
+ 1.463u 101.3
+ 1.477u 101.7
+ 1.497u 167.1
+ 1.52u 253.1
+ 1.539u 264.3
+ 1.558u 265
+ 1.578u 235.7
+ 1.592u 238.4
+ 1.61u 220.4
+ 1.63u 2.35.6
+ 1.646u 226.3
+ 1.678u 212.5
+ 1.740u 165.3
+ 1.8u 29.2
+ 1.86u 1.9
+ 1.92u 1.2
+ 1.96u 20.4
+ 1.985u 87.8
+ 2.005u 25.8
+ 2.035u 95.9
+ 2.065u 58.2
+ 2.1u 85.9
+ 2.148u 79.2
+ 2.198u 68.9
+ 2.27u 67.7
+ 2.36u 59.8
+ 2.45u 20.4
+ 2.494u 17.8
+ 2.537u 3.1
+ 2.941u 4.2
+ 2.973u 7.3
+ 3.005u 6.3
+ 3.056u 3.1
+ 3.132u 5.2
+ 3.156u 18.7
+ 3.204u 1.3
+ 3.245u 3.1
+ 3.317u 12.6
+ 3.344u 3.1
+ 3.45u 12.8
+ 3.573u 11.5
+ 3.765u 9.4
+ 4.045u 7.2
.ends am15g