Version 4
SHEET 1 880 680
WIRE 160 48 112 48
WIRE 384 48 160 48
WIRE 160 144 160 48
WIRE 192 144 160 144
WIRE 352 144 352 -32
WIRE 352 144 320 144
WIRE 384 144 384 48
WIRE 432 144 384 144
WIRE 608 144 608 -32
WIRE 608 144 560 144
WIRE 192 176 128 176
WIRE 352 176 352 144
WIRE 432 176 352 176
WIRE 160 208 160 144
WIRE 192 208 160 208
WIRE 336 208 320 208
WIRE 384 208 384 144
WIRE 432 208 384 208
WIRE 608 208 576 208
WIRE 256 272 256 240
WIRE 256 272 224 272
WIRE 496 272 496 240
WIRE 496 272 256 272
FLAG 128 176 CLK
IOPIN 128 176 In
FLAG 608 -32 QB
IOPIN 608 -32 Out
FLAG 352 -32 QA
IOPIN 352 -32 Out
FLAG 224 272 CLR
SYMBOL Gluisf\\Portas\ Lógicas\\FF-JK 256 176 R0
SYMATTR InstName X1
SYMBOL Gluisf\\Portas\ Lógicas\\VTTL 112 48 R0
WINDOW 3 -48 0 Center 1
SYMATTR InstName X2
SYMBOL Gluisf\\Portas\ Lógicas\\FF-JK 496 176 R0
SYMATTR InstName X3
TEXT 296 288 Left 2 !.IC V(CLR)=0
