Version 4
SHEET 1 880 680
WIRE -32 -144 -560 -144
WIRE 128 -144 -32 -144
WIRE 368 -144 128 -144
WIRE 496 -144 368 -144
WIRE -560 -128 -560 -144
WIRE -32 -128 -32 -144
WIRE 128 -128 128 -144
WIRE 368 -128 368 -144
WIRE 496 -128 496 -144
WIRE -224 -80 -320 -80
WIRE -320 -64 -320 -80
WIRE -384 0 -640 0
WIRE -368 0 -384 0
WIRE -224 0 -224 -80
WIRE -224 0 -272 0
WIRE -128 0 -224 0
WIRE -224 16 -224 0
WIRE -128 48 -128 0
WIRE -32 48 -32 -48
WIRE -32 48 -128 48
WIRE 496 64 496 -48
WIRE -288 80 -640 80
WIRE -272 80 -288 80
WIRE -64 80 -176 80
WIRE -128 96 -128 48
WIRE 368 112 368 -48
WIRE 432 112 368 112
WIRE 368 128 368 112
WIRE -192 160 -640 160
WIRE -176 160 -192 160
WIRE -64 160 -64 80
WIRE -64 160 -80 160
WIRE 48 160 -64 160
WIRE -32 176 -32 48
WIRE 128 176 128 -48
WIRE 176 176 128 176
WIRE 272 176 240 176
WIRE 304 176 272 176
WIRE 496 176 496 160
WIRE 128 192 128 176
WIRE -96 240 -640 240
WIRE -80 240 -96 240
WIRE 48 240 48 160
WIRE 48 240 16 240
WIRE 64 240 48 240
WIRE 496 256 496 240
WIRE 608 256 496 256
WIRE 272 288 272 176
WIRE 496 288 496 256
WIRE 128 336 128 288
WIRE 208 336 128 336
WIRE 368 336 368 224
WIRE 432 336 368 336
WIRE -384 352 -384 0
WIRE -288 352 -288 80
WIRE -192 352 -192 160
WIRE -96 352 -96 240
WIRE 128 352 128 336
WIRE 368 368 368 336
WIRE -560 464 -560 -48
WIRE -384 464 -384 416
WIRE -384 464 -560 464
WIRE -288 464 -288 416
WIRE -288 464 -384 464
WIRE -192 464 -192 416
WIRE -192 464 -288 464
WIRE -96 464 -96 416
WIRE -96 464 -192 464
WIRE 16 464 -96 464
WIRE 128 464 128 432
WIRE 128 464 16 464
WIRE 272 464 272 384
WIRE 272 464 128 464
WIRE 368 464 368 448
WIRE 368 464 272 464
WIRE 496 464 496 384
WIRE 496 464 368 464
WIRE 16 512 16 464
FLAG 16 512 0
FLAG -640 160 C
IOPIN -640 160 In
FLAG 608 256 Y
IOPIN 608 256 Out
FLAG -640 80 B
IOPIN -640 80 In
FLAG -640 0 A
IOPIN -640 0 In
FLAG -640 240 D
IOPIN -640 240 In
SYMBOL npn 432 64 R0
SYMATTR InstName Q1
SYMBOL npn 432 288 R0
SYMATTR InstName Q2
SYMBOL npn 304 128 R0
SYMATTR InstName Q3
SYMBOL npn 16 176 R90
SYMATTR InstName Q4
SYMBOL res 480 -144 R0
SYMATTR InstName R1
SYMATTR Value 130
SYMBOL res 352 -144 R0
SYMATTR InstName R2
SYMATTR Value 1.6k
SYMBOL res -48 -144 R0
SYMATTR InstName R3
SYMATTR Value 4k
SYMBOL res 352 352 R0
SYMATTR InstName R4
SYMATTR Value 1k
SYMBOL diode 480 176 R0
SYMATTR InstName D1
SYMBOL diode -80 416 R180
WINDOW 0 24 64 Left 2
WINDOW 3 24 0 Left 2
SYMATTR InstName D2
SYMBOL voltage -560 -144 R0
WINDOW 123 0 0 Left 2
WINDOW 39 0 0 Left 2
SYMATTR InstName V1
SYMATTR Value 5
SYMBOL npn -80 96 R90
SYMATTR InstName Q5
SYMBOL diode -176 416 R180
WINDOW 0 24 64 Left 2
WINDOW 3 24 0 Left 2
SYMATTR InstName D3
SYMBOL npn 64 192 R0
SYMATTR InstName Q6
SYMBOL diode 176 160 M90
WINDOW 0 0 32 VBottom 2
WINDOW 3 32 32 VTop 2
SYMATTR InstName D4
SYMBOL npn 208 288 R0
SYMATTR InstName Q7
SYMBOL res 112 -144 R0
SYMATTR InstName R5
SYMATTR Value 2k
SYMBOL res 112 336 R0
SYMATTR InstName R6
SYMATTR Value 800
SYMBOL diode -272 416 R180
WINDOW 0 24 64 Left 2
WINDOW 3 24 0 Left 2
SYMATTR InstName D5
SYMBOL npn -176 16 R90
SYMATTR InstName Q8
SYMBOL npn -272 -64 R90
SYMATTR InstName Q9
SYMBOL diode -368 416 R180
WINDOW 0 24 64 Left 2
WINDOW 3 24 0 Left 2
SYMATTR InstName D6
TEXT 512 424 Left 2 !.model NPN AKO:BC548C\n.model D AKO:1N4148
