Version 4
SHEET 1 880 808
WIRE 240 32 -80 32
WIRE 240 64 -16 64
WIRE 416 64 336 64
WIRE 240 96 112 96
WIRE -80 144 -80 32
WIRE 240 144 -80 144
WIRE -16 176 -16 64
WIRE 240 176 -16 176
WIRE 416 176 336 176
WIRE -80 192 -80 144
WIRE -80 192 -128 192
WIRE 240 208 176 208
WIRE -80 256 -80 192
WIRE 240 256 -80 256
WIRE 240 288 48 288
WIRE 416 288 336 288
WIRE 112 320 112 96
WIRE 240 320 112 320
WIRE -80 368 -80 256
WIRE 240 368 -80 368
WIRE 48 400 48 288
WIRE 240 400 48 400
WIRE 416 400 336 400
WIRE 176 432 176 208
WIRE 240 432 176 432
WIRE -16 464 -16 176
WIRE 112 464 112 320
WIRE -16 608 -16 576
WIRE 48 608 48 400
WIRE 48 608 -16 608
WIRE 112 608 112 576
WIRE 176 608 176 432
WIRE 176 608 112 608
WIRE 48 656 48 608
WIRE 176 656 176 608
FLAG 416 64 OUT1
IOPIN 416 64 Out
FLAG -128 192 IN
IOPIN -128 192 In
FLAG 48 656 S1
IOPIN 48 656 In
FLAG 176 656 S0
IOPIN 176 656 In
FLAG 416 176 OUT2
IOPIN 416 176 Out
FLAG 416 288 OUT3
IOPIN 416 288 Out
FLAG 416 400 OUT4
IOPIN 416 400 Out
SYMBOL Gluisf\\Portas\ Lógicas\\AND3 304 64 R0
SYMATTR InstName X1
SYMBOL Gluisf\\Portas\ Lógicas\\AND3 304 176 R0
SYMATTR InstName X2
SYMBOL Gluisf\\Portas\ Lógicas\\AND3 304 288 R0
SYMATTR InstName X3
SYMBOL Gluisf\\Portas\ Lógicas\\AND3 304 400 R0
SYMATTR InstName X4
SYMBOL Gluisf\\Portas\ Lógicas\\NOT -16 512 R270
SYMATTR InstName X6
SYMBOL Gluisf\\Portas\ Lógicas\\NOT 112 512 R270
SYMATTR InstName X7
