Version 4
SHEET 1 880 680
WIRE 0 16 -176 16
WIRE 96 16 0 16
WIRE 256 48 208 48
WIRE 96 80 -128 80
WIRE 400 80 368 80
WIRE 496 80 400 80
WIRE 0 112 0 16
WIRE 256 112 224 112
WIRE 400 128 400 80
WIRE 224 144 224 112
WIRE -128 160 -128 80
WIRE -128 160 -176 160
WIRE 224 176 400 128
WIRE 400 192 224 144
WIRE 224 208 224 176
WIRE 256 208 224 208
WIRE -128 240 -128 160
WIRE 96 240 -128 240
WIRE 400 240 400 192
WIRE 400 240 368 240
WIRE 496 240 400 240
WIRE 256 272 208 272
WIRE 0 304 0 224
WIRE 96 304 0 304
FLAG 496 80 Q
IOPIN 496 80 Out
FLAG 496 240 _Q
IOPIN 496 240 Out
FLAG -176 16 D
IOPIN -176 16 In
FLAG -176 160 CLK
IOPIN -176 160 In
SYMBOL Gluisf\\Portas\ Lógicas\\NOT 0 176 R90
SYMATTR InstName X3
SYMBOL Gluisf\\Portas\ Lógicas\\NAND 160 48 R0
SYMATTR InstName X4
SYMBOL Gluisf\\Portas\ Lógicas\\NAND 160 272 R0
SYMATTR InstName X5
SYMBOL Gluisf\\Portas\ Lógicas\\NAND 320 80 R0
SYMATTR InstName X1
SYMBOL Gluisf\\Portas\ Lógicas\\NAND 320 240 R0
SYMATTR InstName X2
TEXT 64 384 Left 2 !.IC V(Q)=0
TEXT 64 416 Left 2 !.IC V(_Q)=3.6
