Version 4
SHEET 1 880 728
WIRE -64 16 -432 16
WIRE 400 16 32 16
WIRE -96 64 -128 64
WIRE -64 64 32 16
WIRE -64 64 -96 64
WIRE 32 64 -64 16
WIRE 64 64 32 64
WIRE 96 64 64 64
WIRE -224 96 -256 96
WIRE 224 96 192 96
WIRE -80 128 -128 128
WIRE 96 128 48 128
WIRE -256 144 -256 96
WIRE -256 144 -288 144
WIRE 224 144 224 96
WIRE 256 144 224 144
WIRE -432 176 -432 16
WIRE -432 176 -496 176
WIRE -400 176 -432 176
WIRE 400 176 400 16
WIRE 400 176 368 176
WIRE 464 176 400 176
WIRE -256 208 -288 208
WIRE -64 208 48 128
WIRE 32 208 -80 128
WIRE 256 208 224 208
WIRE -96 224 -96 64
WIRE -96 224 -128 224
WIRE 64 224 64 64
WIRE 96 224 64 224
WIRE -256 256 -256 208
WIRE -224 256 -256 256
WIRE 224 256 224 208
WIRE 224 256 192 256
WIRE -16 288 -128 288
WIRE 96 288 -16 288
WIRE -432 416 -432 176
WIRE -272 416 -432 416
WIRE 400 416 400 176
WIRE 400 416 240 416
WIRE -272 448 -496 448
WIRE -64 448 -64 208
WIRE -64 448 -160 448
WIRE 32 448 32 208
WIRE 128 448 32 448
WIRE 464 448 240 448
WIRE -272 480 -320 480
WIRE 288 480 240 480
WIRE -320 544 -320 480
WIRE -16 544 -16 288
WIRE -16 544 -320 544
WIRE 288 544 288 480
WIRE 288 544 -16 544
WIRE -16 624 -16 544
FLAG -496 176 Q
IOPIN -496 176 Out
FLAG 464 176 _Q
IOPIN 464 176 Out
FLAG 464 448 J
IOPIN 464 448 In
FLAG -496 448 K
IOPIN -496 448 In
FLAG -16 624 CLK
IOPIN -16 624 In
SYMBOL Gluisf\\Portas\ Lógicas\\NAND3 -208 448 R0
SYMATTR InstName X2
SYMBOL Gluisf\\Portas\ Lógicas\\NAND3 176 448 M0
SYMATTR InstName X3
SYMBOL Gluisf\\Portas\ Lógicas\\NOR 320 176 R0
SYMATTR InstName X6
SYMBOL Gluisf\\Portas\ Lógicas\\NOR -352 176 M0
SYMATTR InstName X7
SYMBOL Gluisf\\Portas\ Lógicas\\AND -192 96 M0
SYMATTR InstName X4
SYMBOL Gluisf\\Portas\ Lógicas\\AND -192 256 M0
SYMATTR InstName X8
SYMBOL Gluisf\\Portas\ Lógicas\\AND 160 96 R0
SYMATTR InstName X9
SYMBOL Gluisf\\Portas\ Lógicas\\AND 160 256 R0
SYMATTR InstName X10
