Version 4
SHEET 1 880 744
WIRE -32 -32 -272 -32
WIRE 304 -32 64 -32
WIRE -96 0 -416 0
WIRE -32 0 64 -32
WIRE -32 0 -96 0
WIRE 64 0 -32 -32
WIRE 128 0 64 0
WIRE 448 0 128 0
WIRE -96 48 -96 0
WIRE -96 48 -128 48
WIRE 128 48 128 0
WIRE 160 48 128 48
WIRE -464 80 -496 80
WIRE -272 80 -272 -32
WIRE -272 80 -464 80
WIRE -240 80 -272 80
WIRE 304 80 304 -32
WIRE 304 80 272 80
WIRE 480 80 304 80
WIRE 528 80 480 80
WIRE -464 96 -464 80
WIRE 480 96 480 80
WIRE -32 112 -128 112
WIRE 160 112 64 112
WIRE 0 160 -256 160
WIRE 288 160 32 160
WIRE -464 192 -464 176
WIRE -32 192 -32 112
WIRE 0 192 32 160
WIRE 0 192 -32 192
WIRE 32 192 0 160
WIRE 64 192 64 112
WIRE 64 192 32 192
WIRE 480 192 480 176
WIRE -32 208 -32 192
WIRE 64 208 64 192
WIRE -256 224 -256 160
WIRE -224 224 -256 224
WIRE 288 224 288 160
WIRE 288 224 256 224
WIRE -96 256 -128 256
WIRE 160 256 128 256
WIRE -224 288 -256 288
WIRE 288 288 256 288
WIRE -256 336 -256 288
WIRE -256 336 -304 336
WIRE -16 336 -256 336
WIRE 288 336 288 288
WIRE 288 336 48 336
WIRE 336 336 288 336
WIRE -304 352 -304 336
WIRE -256 352 -256 336
WIRE 288 352 288 336
WIRE 336 352 336 336
WIRE -224 432 -256 432
WIRE 288 432 256 432
WIRE -416 464 -416 0
WIRE -352 464 -416 464
WIRE -16 464 48 336
WIRE -16 464 -112 464
WIRE 48 464 -16 336
WIRE 144 464 48 464
WIRE 448 464 448 0
WIRE 448 464 384 464
WIRE -352 496 -496 496
WIRE -224 496 -256 496
WIRE 288 496 256 496
WIRE 528 496 384 496
WIRE -352 528 -416 528
WIRE 448 528 384 528
WIRE -416 560 -416 528
WIRE -32 560 -32 304
WIRE -32 560 -416 560
WIRE 16 560 -32 560
WIRE 64 560 64 304
WIRE 64 560 16 560
WIRE 448 560 448 528
WIRE 448 560 64 560
WIRE 16 640 16 560
FLAG -496 80 Q
IOPIN -496 80 Out
FLAG 528 80 _Q
IOPIN 528 80 Out
FLAG -496 496 K
IOPIN -496 496 In
FLAG 16 640 CLK
IOPIN 16 640 In
FLAG 528 496 J
IOPIN 528 496 In
FLAG -304 416 0
FLAG 336 416 0
FLAG 480 192 0
FLAG -464 192 0
FLAG 64 112 0V
SYMBOL Gluisf\\Portas\ Lógicas\\NOR -160 464 R0
SYMATTR InstName X6
SYMBOL Gluisf\\Portas\ Lógicas\\NOR 192 464 M0
SYMATTR InstName X7
SYMBOL Gluisf\\Portas\ Lógicas\\AND 192 256 M0
SYMATTR InstName X8
SYMBOL Gluisf\\Portas\ Lógicas\\AND -160 256 R0
SYMATTR InstName X10
SYMBOL Gluisf\\Portas\ Lógicas\\AND3 -288 496 R0
SYMATTR InstName X1
SYMBOL Gluisf\\Portas\ Lógicas\\AND3 320 496 M0
SYMATTR InstName X2
SYMBOL npn -96 208 R0
SYMATTR InstName Q1
SYMBOL npn 128 208 M0
SYMATTR InstName Q2
SYMBOL Gluisf\\Portas\ Lógicas\\NAND 224 80 R0
SYMATTR InstName X3
SYMBOL Gluisf\\Portas\ Lógicas\\NAND -192 80 M0
SYMATTR InstName X4
SYMBOL res -272 336 R0
SYMATTR InstName R1
SYMATTR Value 100
SYMBOL res 304 336 M0
SYMATTR InstName R2
SYMATTR Value 200
SYMBOL cap -288 352 M0
SYMATTR InstName C1
SYMATTR Value 1n
SYMBOL cap 320 352 R0
SYMATTR InstName C2
SYMATTR Value 1n
SYMBOL res 464 80 R0
SYMATTR InstName R3
SYMATTR Value 10k
SYMBOL res -480 80 R0
SYMATTR InstName R4
SYMATTR Value 10k
TEXT 152 592 Left 2 !.model NPN AKO:BC548C
TEXT 528 280 Left 2 !.IC V(_Q)=3.6\n.IC V(Q)=0
