Version 4
SHEET 1 880 680
WIRE 272 -16 -128 -16
WIRE -128 16 -128 -16
WIRE -96 16 -128 16
WIRE -96 48 -176 48
WIRE 112 48 16 48
WIRE -96 80 -128 80
WIRE 256 80 224 80
WIRE 288 80 256 80
WIRE 352 80 288 80
WIRE 112 112 80 112
WIRE 256 128 256 80
WIRE 80 144 80 112
WIRE -128 160 -128 80
WIRE -128 160 -176 160
WIRE 80 176 256 128
WIRE 256 192 80 144
WIRE 80 208 80 176
WIRE 112 208 80 208
WIRE -128 240 -128 160
WIRE -96 240 -128 240
WIRE 256 240 256 192
WIRE 256 240 224 240
WIRE 272 240 272 -16
WIRE 272 240 256 240
WIRE 352 240 272 240
WIRE -96 272 -176 272
WIRE 112 272 16 272
WIRE -96 304 -128 304
WIRE -128 336 -128 304
WIRE 288 336 288 80
WIRE 288 336 -128 336
FLAG 352 80 Q
IOPIN 352 80 Out
FLAG 352 240 _Q
IOPIN 352 240 Out
FLAG -176 48 J
IOPIN -176 48 In
FLAG -176 272 K
IOPIN -176 272 In
FLAG -176 160 CLK
IOPIN -176 160 In
SYMBOL Gluisf\\Portas\ Lógicas\\NAND 176 80 R0
SYMATTR InstName X1
SYMBOL Gluisf\\Portas\ Lógicas\\NAND 176 240 R0
SYMATTR InstName X2
SYMBOL Gluisf\\Portas\ Lógicas\\NAND3 -32 48 R0
SYMATTR InstName X5
SYMBOL Gluisf\\Portas\ Lógicas\\NAND3 -32 272 R0
SYMATTR InstName X6
