Version 4
SHEET 1 880 876
WIRE -32 -64 -272 -64
WIRE 304 -64 64 -64
WIRE -96 -32 -448 -32
WIRE -32 -32 64 -64
WIRE -32 -32 -96 -32
WIRE 64 -32 -32 -64
WIRE 128 -32 64 -32
WIRE 480 -32 128 -32
WIRE -96 16 -96 -32
WIRE -96 16 -128 16
WIRE 128 16 128 -32
WIRE 160 16 128 16
WIRE -544 48 -576 48
WIRE -272 48 -272 -64
WIRE -272 48 -544 48
WIRE -240 48 -272 48
WIRE -16 48 -128 48
WIRE 160 48 48 48
WIRE 304 48 304 -64
WIRE 304 48 272 48
WIRE 560 48 304 48
WIRE 608 48 560 48
WIRE -544 80 -544 48
WIRE -32 80 -128 80
WIRE 160 80 64 80
WIRE 560 80 560 48
WIRE -16 128 48 48
WIRE -16 128 -416 128
WIRE 48 128 -16 48
WIRE 448 128 48 128
WIRE 0 160 -256 160
WIRE 288 160 32 160
WIRE -544 192 -544 160
WIRE -32 192 -32 80
WIRE 0 192 32 160
WIRE 0 192 -32 192
WIRE 32 192 0 160
WIRE 64 192 64 80
WIRE 64 192 32 192
WIRE 560 192 560 160
WIRE -32 208 -32 192
WIRE 64 208 64 192
WIRE -256 224 -256 160
WIRE -224 224 -256 224
WIRE 288 224 288 160
WIRE 288 224 256 224
WIRE -416 256 -416 128
WIRE -224 256 -416 256
WIRE -96 256 -128 256
WIRE 160 256 128 256
WIRE 448 256 448 128
WIRE 448 256 256 256
WIRE -224 288 -256 288
WIRE 288 288 256 288
WIRE -368 336 -384 336
WIRE -256 336 -256 288
WIRE -256 336 -288 336
WIRE -16 336 -256 336
WIRE 288 336 288 288
WIRE 288 336 48 336
WIRE 320 336 288 336
WIRE 416 336 400 336
WIRE -496 400 -528 400
WIRE 528 400 496 400
WIRE -496 416 -496 400
WIRE -384 416 -384 336
WIRE -352 416 -384 416
WIRE -272 416 -288 416
WIRE 320 416 304 416
WIRE 416 416 416 336
WIRE 416 416 384 416
WIRE 496 416 496 400
WIRE -272 432 -272 416
WIRE 304 432 304 416
WIRE -384 464 -384 416
WIRE -352 464 -384 464
WIRE 416 464 416 416
WIRE 416 464 384 464
WIRE -240 496 -256 496
WIRE 288 496 272 496
WIRE -496 528 -496 496
WIRE -496 528 -528 528
WIRE -416 528 -416 256
WIRE -416 528 -496 528
WIRE -352 528 -416 528
WIRE 448 528 448 256
WIRE 448 528 384 528
WIRE 496 528 496 496
WIRE 496 528 448 528
WIRE 528 528 496 528
WIRE -240 560 -240 496
WIRE -224 560 -240 560
WIRE 272 560 272 496
WIRE 272 560 256 560
WIRE -416 592 -416 528
WIRE -352 592 -416 592
WIRE -16 592 48 336
WIRE -16 592 -112 592
WIRE 48 592 -16 336
WIRE 144 592 48 592
WIRE 448 592 448 528
WIRE 448 592 384 592
WIRE -448 608 -448 -32
WIRE -352 608 -448 608
WIRE 480 608 480 -32
WIRE 480 608 384 608
WIRE -224 624 -256 624
WIRE 288 624 256 624
WIRE -352 640 -496 640
WIRE 528 640 384 640
WIRE -352 656 -416 656
WIRE 448 656 384 656
WIRE -416 688 -416 656
WIRE -32 688 -32 304
WIRE -32 688 -416 688
WIRE 16 688 -32 688
WIRE 64 688 64 304
WIRE 64 688 16 688
WIRE 448 688 448 656
WIRE 448 688 64 688
WIRE 16 768 16 688
FLAG -576 48 Q
IOPIN -576 48 Out
FLAG 608 48 _Q
IOPIN 608 48 Out
FLAG -496 640 K
IOPIN -496 640 In
FLAG 16 768 CLK
IOPIN 16 768 In
FLAG 528 640 J
IOPIN 528 640 In
FLAG 560 192 0
FLAG -544 192 0
FLAG -528 528 _CLR
IOPIN -528 528 In
FLAG 528 528 _PRE
IOPIN 528 528 In
FLAG -272 432 0
FLAG 304 432 0
SYMBOL Gluisf\\Portas\ Lógicas\\NOR -160 592 R0
SYMATTR InstName X6
SYMBOL Gluisf\\Portas\ Lógicas\\NOR 192 592 M0
SYMATTR InstName X7
SYMBOL npn -96 208 R0
SYMATTR InstName Q1
SYMBOL npn 128 208 M0
SYMATTR InstName Q2
SYMBOL res 544 64 R0
SYMATTR InstName R3
SYMATTR Value 10k
SYMBOL res -560 64 R0
SYMATTR InstName R4
SYMATTR Value 10k
SYMBOL Gluisf\\Portas\ Lógicas\\NAND3 224 48 R0
SYMATTR InstName X5
SYMBOL Gluisf\\Portas\ Lógicas\\NAND3 -192 48 M0
SYMATTR InstName X3
SYMBOL Gluisf\\Portas\ Lógicas\\AND -288 496 R0
SYMATTR InstName X4
SYMBOL Gluisf\\Portas\ Lógicas\\AND 320 496 M0
SYMATTR InstName X9
SYMBOL Gluisf\\Portas\ Lógicas\\AND3 -160 256 R0
SYMATTR InstName X8
SYMBOL Gluisf\\Portas\ Lógicas\\AND3 192 256 M0
SYMATTR InstName X10
SYMBOL Gluisf\\Portas\ Lógicas\\AND4 -288 624 R0
SYMATTR InstName X11
SYMBOL Gluisf\\Portas\ Lógicas\\AND4 320 624 M0
SYMATTR InstName X1
SYMBOL res -480 400 M0
SYMATTR InstName R1
SYMATTR Value 1k
SYMBOL Gluisf\\Portas\ Lógicas\\VTTL -528 400 R0
SYMATTR InstName X2
SYMBOL res 480 400 R0
SYMATTR InstName R2
SYMATTR Value 1k
SYMBOL Gluisf\\Portas\ Lógicas\\VTTL 528 400 M0
SYMATTR InstName X12
SYMBOL res -272 320 R90
WINDOW 0 0 56 VBottom 2
WINDOW 3 32 56 VTop 2
SYMATTR InstName R5
SYMATTR Value 100
SYMBOL cap -288 400 R90
WINDOW 0 0 32 VBottom 2
WINDOW 3 32 32 VTop 2
SYMATTR InstName C1
SYMATTR Value 100p
SYMBOL res 304 320 M90
WINDOW 0 0 56 VBottom 2
WINDOW 3 32 56 VTop 2
SYMATTR InstName R6
SYMATTR Value 200
SYMBOL cap 320 400 M90
WINDOW 0 0 32 VBottom 2
WINDOW 3 32 32 VTop 2
SYMATTR InstName C2
SYMATTR Value 100p
TEXT 152 720 Left 2 !.model NPN AKO:BC548C
