Version 4
SHEET 1 880 680
WIRE 96 48 16 48
WIRE 256 80 224 80
WIRE 304 80 256 80
WIRE 112 112 80 112
WIRE 256 128 256 80
WIRE 80 144 80 112
WIRE 80 176 256 128
WIRE 256 192 80 144
WIRE 80 208 80 176
WIRE 112 208 80 208
WIRE 256 240 256 192
WIRE 256 240 224 240
WIRE 304 240 256 240
WIRE 96 272 16 272
FLAG 304 80 Q
IOPIN 304 80 Out
FLAG 304 240 _Q
IOPIN 304 240 Out
FLAG 16 48 S
IOPIN 16 48 In
FLAG 16 272 R
IOPIN 16 272 In
SYMBOL Gluisf\\Portas\ Lógicas\\NAND 176 80 R0
SYMATTR InstName X1
SYMBOL Gluisf\\Portas\ Lógicas\\NAND 176 240 R0
SYMATTR InstName X2
SYMBOL Gluisf\\Portas\ Lógicas\\NOTMIN 96 48 R0
SYMATTR InstName X4
SYMBOL Gluisf\\Portas\ Lógicas\\NOTMIN 96 272 R0
SYMATTR InstName X3
