Version 4
SHEET 1 880 808
WIRE 240 32 -128 32
WIRE 240 64 -16 64
WIRE 400 64 336 64
WIRE 240 96 112 96
WIRE 240 144 -128 144
WIRE -16 176 -16 64
WIRE 240 176 -16 176
WIRE 368 176 336 176
WIRE 400 192 400 64
WIRE 432 192 400 192
WIRE 240 208 176 208
WIRE 368 208 368 176
WIRE 432 208 368 208
WIRE 624 224 528 224
WIRE 432 240 368 240
WIRE 240 256 -128 256
WIRE 432 256 400 256
WIRE 240 288 48 288
WIRE 368 288 368 240
WIRE 368 288 336 288
WIRE 112 320 112 96
WIRE 240 320 112 320
WIRE 240 368 -128 368
WIRE 48 400 48 288
WIRE 240 400 48 400
WIRE 400 400 400 256
WIRE 400 400 336 400
WIRE 176 432 176 208
WIRE 240 432 176 432
WIRE -16 464 -16 176
WIRE 112 464 112 320
WIRE -16 608 -16 576
WIRE 48 608 48 400
WIRE 48 608 -16 608
WIRE 112 608 112 576
WIRE 176 608 176 432
WIRE 176 608 112 608
WIRE 48 656 48 608
WIRE 176 656 176 608
FLAG 624 224 OUT
IOPIN 624 224 Out
FLAG -128 32 IN1
IOPIN -128 32 In
FLAG -128 144 IN2
IOPIN -128 144 In
FLAG -128 256 IN3
IOPIN -128 256 In
FLAG -128 368 IN4
IOPIN -128 368 In
FLAG 48 656 S1
IOPIN 48 656 In
FLAG 176 656 S0
IOPIN 176 656 In
SYMBOL Gluisf\\Portas\ Lógicas\\AND3 304 64 R0
SYMATTR InstName X1
SYMBOL Gluisf\\Portas\ Lógicas\\AND3 304 176 R0
SYMATTR InstName X2
SYMBOL Gluisf\\Portas\ Lógicas\\AND3 304 288 R0
SYMATTR InstName X3
SYMBOL Gluisf\\Portas\ Lógicas\\AND3 304 400 R0
SYMATTR InstName X4
SYMBOL Gluisf\\Portas\ Lógicas\\OR4 496 224 R0
SYMATTR InstName X5
SYMBOL Gluisf\\Portas\ Lógicas\\NOT -16 512 R270
SYMATTR InstName X6
SYMBOL Gluisf\\Portas\ Lógicas\\NOT 112 512 R270
SYMATTR InstName X7
