Version 4
SHEET 1 880 696
WIRE -64 -48 -96 -48
WIRE 32 -48 16 -48
WIRE 80 -48 32 -48
WIRE 80 80 48 80
WIRE 528 80 464 80
WIRE 608 80 528 80
WIRE 48 112 48 80
WIRE 528 112 528 80
WIRE 608 112 608 80
WIRE 48 224 48 192
WIRE 528 224 528 192
WIRE 608 224 608 192
FLAG 528 224 0
FLAG 32 -48 In
FLAG 528 80 Out
FLAG -96 -48 0
FLAG 48 224 0
FLAG 608 224 0
SYMBOL voltage 32 -48 R90
WINDOW 123 24 124 Left 2
WINDOW 39 0 0 Left 2
WINDOW 0 38 38 Left 2
SYMATTR InstName Vin
SYMATTR Value 10V
SYMBOL res 512 96 R0
SYMATTR InstName R
SYMATTR Value 5
SYMBOL voltage 48 96 M0
SYMATTR InstName VDuty
SYMATTR Value {DutyC}
SYMBOL Buck-VM-Power_Train 208 80 R0
SYMATTR InstName X1
SYMBOL current 608 112 R0
WINDOW 123 24 108 Left 2
WINDOW 39 0 0 Left 2
SYMATTR Value2 AC 1
SYMATTR InstName Iinj
SYMATTR Value ""
TEXT 288 -104 Left 2 !.Param DutyC=0.5
TEXT 288 -128 Left 2 !.ac dec 100 1Hz 100kHz
