Version 4
SHEET 1 1032 696
WIRE -64 -80 -96 -80
WIRE 32 -80 16 -80
WIRE 80 -80 32 -80
WIRE -336 48 -400 48
WIRE 80 48 16 48
WIRE 528 48 464 48
WIRE 608 48 528 48
WIRE -400 80 -400 48
WIRE 528 80 528 48
WIRE 608 80 608 48
WIRE 464 144 464 48
WIRE 464 144 144 144
WIRE -400 192 -400 160
WIRE 528 192 528 160
WIRE 608 192 608 160
FLAG 32 -80 In
FLAG 528 48 Out
FLAG -400 192 0
FLAG -400 48 Ref
FLAG 528 192 0
FLAG -96 -80 0
FLAG 608 192 0
SYMBOL res 512 64 R0
SYMATTR InstName R
SYMATTR Value 5
SYMBOL voltage -400 64 R0
SYMATTR InstName VRef
SYMATTR Value 2.5V
SYMBOL voltage 32 -80 R90
WINDOW 123 24 124 Left 2
WINDOW 39 0 0 Left 2
WINDOW 0 26 89 VRight 2
WINDOW 3 28 -8 VRight 2
SYMATTR InstName Vin
SYMATTR Value 10V
SYMBOL Buck-VM-FeedBack -112 144 R0
SYMATTR InstName X2
SYMBOL Buck-VM-Power_Train 208 48 R0
SYMATTR InstName X1
SYMBOL current 608 80 R0
WINDOW 123 24 108 Left 2
WINDOW 39 0 0 Left 2
SYMATTR Value2 AC 1
SYMATTR InstName Iinj
SYMATTR Value ""
TEXT 400 -64 Left 2 !.ac dec 100 1Hz 100kHz
