Version 4
SHEET 1 1032 696
WIRE -160 -176 -208 -176
WIRE -32 -176 -80 -176
WIRE 48 -176 -32 -176
WIRE -208 -144 -208 -176
WIRE -32 -144 -32 -176
WIRE 48 -80 48 -176
WIRE 80 -80 48 -80
WIRE -208 -32 -208 -64
WIRE -32 -32 -32 -64
WIRE -32 -32 -208 -32
WIRE -32 0 -32 -32
WIRE -336 48 -400 48
WIRE 80 48 16 48
WIRE 528 48 464 48
WIRE -400 80 -400 48
WIRE 528 80 528 48
WIRE 464 144 464 48
WIRE 464 144 144 144
WIRE -400 192 -400 160
WIRE 528 192 528 160
FLAG -32 -176 In
FLAG 528 48 Out
FLAG -400 192 0
FLAG -400 48 Ref
FLAG 528 192 0
FLAG -32 0 0
SYMBOL res 512 64 R0
SYMATTR InstName R
SYMATTR Value 5
SYMBOL voltage -400 64 R0
SYMATTR InstName VRef
SYMATTR Value 2.5V
SYMBOL voltage -208 -160 R0
WINDOW 123 24 124 Left 2
WINDOW 39 0 0 Left 2
WINDOW 0 39 65 Left 2
SYMATTR InstName Vin
SYMATTR Value 10V
SYMBOL current -32 -144 M0
WINDOW 123 12 84 Left 2
WINDOW 39 0 0 Left 2
SYMATTR Value2 AC 1
SYMATTR InstName Iinj
SYMATTR Value ""
SYMBOL ind -176 -160 R270
WINDOW 0 32 56 VTop 2
WINDOW 3 7 31 VBottom 2
SYMATTR InstName Lisol
SYMATTR Value 1kH
SYMBOL Buck-VM-FeedBack -112 144 R0
SYMATTR InstName X2
SYMBOL Buck-VM-Power_Train 208 48 R0
SYMATTR InstName X1
TEXT 288 -168 Left 2 !.ac dec 100 1Hz 100kHz
