Version 4
SHEET 1 880 680
WIRE -192 32 -192 0
WIRE -192 80 -192 32
WIRE -192 400 -192 80
WIRE -192 432 -192 400
WIRE -160 432 -192 432
WIRE -144 80 -192 80
WIRE -144 224 -144 80
WIRE -144 336 -144 304
WIRE -112 32 -192 32
WIRE -80 80 -144 80
WIRE -80 96 -80 80
WIRE -80 432 -80 384
WIRE -80 448 -80 432
WIRE -80 544 -80 528
WIRE -48 544 -80 544
WIRE -48 544 -48 416
WIRE -16 32 -32 32
WIRE -16 80 -16 32
WIRE -16 96 -16 80
WIRE -16 416 -48 416
WIRE -16 416 -16 384
WIRE -16 496 -16 480
WIRE 16 80 -16 80
WIRE 48 80 16 80
WIRE 48 96 48 80
WIRE 48 432 48 384
WIRE 48 496 -16 496
WIRE 48 512 48 496
WIRE 80 16 16 16
WIRE 80 32 80 16
WIRE 112 96 112 48
WIRE 112 400 -192 400
WIRE 112 400 112 384
WIRE 176 0 -192 0
WIRE 176 96 176 0
WIRE 176 432 176 384
WIRE 240 96 240 64
WIRE 240 416 -16 416
WIRE 240 416 240 384
WIRE 256 64 240 64
WIRE 272 432 176 432
WIRE 304 96 304 80
WIRE 304 496 48 496
WIRE 304 496 304 384
WIRE 352 80 304 80
WIRE 352 432 272 432
WIRE 352 432 352 80
WIRE 368 48 112 48
WIRE 368 288 368 48
WIRE 368 416 368 336
WIRE 368 496 304 496
WIRE 368 496 368 480
WIRE 384 192 384 144
WIRE 400 192 384 192
WIRE 400 288 368 288
WIRE 432 0 176 0
WIRE 432 144 384 144
WIRE 432 144 432 0
WIRE 432 160 432 144
WIRE 432 256 432 224
WIRE 432 336 368 336
WIRE 432 336 432 320
WIRE 432 352 432 336
WIRE 432 496 368 496
WIRE 432 496 432 432
FLAG 48 512 0
FLAG 80 32 0
FLAG -144 336 0
FLAG 272 432 Out1
FLAG 256 64 Out2
SYMBOL cap 32 432 R0
WINDOW 3 33 48 Left 0
SYMATTR Value 10n
SYMATTR InstName C1
SYMBOL cap -32 416 R0
WINDOW 0 26 15 Left 0
SYMATTR InstName C2
SYMATTR Value 47n
SYMBOL res -64 544 R180
WINDOW 0 28 47 Left 0
WINDOW 3 21 11 Left 0
SYMATTR InstName R1
SYMATTR Value 1K
SYMATTR SpiceLine tol=1 pwr=0.1
SYMBOL res -176 448 R270
WINDOW 0 56 38 VTop 0
WINDOW 3 4 37 VBottom 0
SYMATTR InstName R2
SYMATTR Value 100k
SYMATTR SpiceLine tol=1 pwr=0.1
SYMBOL cap 0 16 R0
WINDOW 3 25 50 Left 0
WINDOW 0 23 13 Left 0
SYMATTR Value 47n
SYMATTR InstName C3
SYMBOL res -16 16 R90
WINDOW 0 54 114 VBottom 0
WINDOW 3 32 56 VTop 0
SYMATTR InstName R3
SYMATTR Value 10k
SYMATTR SpiceLine tol=1 pwr=0.1
SYMBOL Pote 416 224 R0
WINDOW 3 78 56 Center 0
WINDOW 123 71 81 Center 0
WINDOW 0 38 32 Left 0
SYMATTR Value Rt=10k
SYMATTR InstName U2
SYMBOL Pote 416 128 R0
WINDOW 0 41 31 Left 0
WINDOW 123 91 58 Center 0
WINDOW 3 41 84 Left 0
SYMATTR InstName U3
SYMATTR Value2 Set=0
SYMATTR Value Rt=10k
SYMBOL res 416 336 R0
SYMATTR InstName R4
SYMATTR Value 100
SYMATTR SpiceLine tol=1 pwr=0.1
SYMBOL cap 352 416 R0
SYMATTR InstName C4
SYMATTR Value 10n
SYMBOL voltage -144 208 R0
WINDOW 0 -33 -1 Left 0
WINDOW 3 -25 56 Left 0
WINDOW 123 0 0 Left 0
SYMATTR InstName V2
SYMATTR Value 12.6
SYMATTR SpiceLine Rser=0.01
SYMBOL Robertugo\\556All 16 240 R270
WINDOW 0 1 -81 Center 0
SYMATTR InstName U1
TEXT 106 514 Left 0 !.tran 20m startup
TEXT 88 544 Left 0 !.params: VDD=15V  RONX=1.0
