Version 4
SHEET 1 1200 1172
WIRE 96 -128 32 -128
WIRE 224 -128 160 -128
WIRE 384 -96 384 -128
WIRE -224 -16 -368 -16
WIRE -112 -16 -160 -16
WIRE 32 -16 32 -128
WIRE 32 -16 -32 -16
WIRE 96 -16 32 -16
WIRE 224 -16 224 -128
WIRE 224 -16 176 -16
WIRE -368 16 -368 -16
WIRE 384 16 384 -16
WIRE -368 112 -368 96
WIRE 128 176 128 144
WIRE 32 192 32 -16
WIRE 96 192 32 192
WIRE 224 208 224 -16
WIRE 224 208 160 208
WIRE 336 208 224 208
WIRE -112 224 -160 224
WIRE 32 224 -32 224
WIRE 96 224 32 224
WIRE 32 272 32 224
WIRE 128 272 128 240
WIRE 32 384 32 352
FLAG 384 16 0
FLAG -368 112 0
FLAG 336 208 out
IOPIN 336 208 Out
FLAG -368 -16 in
FLAG 128 144 V+
FLAG 384 -128 V+
FLAG 128 272 0
FLAG 32 384 0
FLAG -160 224 V+
SYMBOL voltage 384 -112 R0
WINDOW 123 0 0 Left 0
WINDOW 39 0 0 Left 0
SYMATTR InstName V1
SYMATTR Value 5
SYMBOL res -16 -32 R90
WINDOW 0 0 56 VBottom 0
WINDOW 3 32 56 VTop 0
SYMATTR InstName R2
SYMATTR Value 10k
SYMBOL cap 160 -144 R90
WINDOW 0 0 32 VBottom 0
WINDOW 3 32 32 VTop 0
SYMATTR InstName C1
SYMATTR Value 1p
SYMBOL res 192 -32 R90
WINDOW 0 0 56 VBottom 0
WINDOW 3 32 56 VTop 0
SYMATTR InstName R1
SYMATTR Value 100k
SYMBOL res 16 256 R0
SYMATTR InstName R3
SYMATTR Value 10k
SYMBOL res -128 240 R270
WINDOW 0 32 56 VTop 0
WINDOW 3 0 56 VBottom 0
SYMATTR InstName R4
SYMATTR Value 15k
SYMBOL cap -224 0 R270
WINDOW 0 32 32 VTop 0
WINDOW 3 0 32 VBottom 0
SYMATTR InstName C2
SYMATTR Value 1µ
SYMBOL xopamp_lm 128 144 R0
SYMATTR InstName U2
SYMATTR SpiceModel LMC7211A/NS
SYMBOL voltage -368 0 R0
WINDOW 123 0 0 Left 0
WINDOW 39 0 0 Left 0
SYMATTR InstName V2
SYMATTR Value SINE(0 .1 1k)
TEXT -392 -160 Left 0 !.tran 0 10m 0 10u
TEXT -48 -232 Left 0 ;Universal Symbol xopamp_lm.asy is used.\nPin's netlist-order: in+ in- out V+ V-
TEXT -392 -192 Left 0 !.options plotwinsize=0
TEXT -384 -232 Left 0 !.include LMC7211A.MOD
