Version 4
SHEET 1 1076 680
WIRE -208 -144 -288 -144
WIRE 80 -144 -208 -144
WIRE 208 -144 80 -144
WIRE 496 -144 208 -144
WIRE 576 -144 496 -144
WIRE 656 -144 576 -144
WIRE 752 -144 656 -144
WIRE 864 -144 752 -144
WIRE 1024 -144 864 -144
WIRE 80 -128 80 -144
WIRE 208 -128 208 -144
WIRE 656 -128 656 -144
WIRE 864 -128 864 -144
WIRE 576 -80 576 -144
WIRE -208 -32 -208 -144
WIRE 656 -32 656 -48
WIRE 656 -32 640 -32
WIRE 80 -16 80 -48
WIRE 208 -16 208 -48
WIRE 416 16 368 16
WIRE 576 16 480 16
WIRE 832 16 576 16
WIRE 16 32 0 32
WIRE 144 32 128 32
WIRE 656 48 656 -32
WIRE 752 48 752 -144
WIRE 496 64 496 -144
WIRE 1024 64 1024 -144
WIRE 240 80 208 80
WIRE 256 80 240 80
WIRE 368 80 368 16
WIRE 368 80 320 80
WIRE -96 96 -112 96
WIRE 0 96 0 32
WIRE 0 96 -32 96
WIRE 80 96 80 80
WIRE 80 96 0 96
WIRE 128 96 128 32
WIRE 128 96 80 96
WIRE 592 96 544 96
WIRE 832 96 816 96
WIRE 880 96 832 96
WIRE 976 96 960 96
WIRE 992 96 976 96
WIRE 0 128 0 96
WIRE 160 128 144 128
WIRE 240 128 240 80
WIRE 240 128 224 128
WIRE 448 128 240 128
WIRE -208 144 -208 48
WIRE 144 144 144 128
WIRE 656 160 656 144
WIRE 704 160 656 160
WIRE 752 160 752 144
WIRE 752 160 704 160
WIRE -112 176 -112 96
WIRE -112 176 -176 176
WIRE -64 176 -112 176
WIRE 208 176 128 176
WIRE 240 176 208 176
WIRE 352 176 240 176
WIRE 368 192 368 80
WIRE 368 192 320 192
WIRE 432 192 368 192
WIRE 704 192 704 160
WIRE -112 208 -112 176
WIRE 496 208 496 160
WIRE 544 208 544 96
WIRE 544 208 496 208
WIRE 32 224 0 224
WIRE 128 224 128 176
WIRE 128 224 112 224
WIRE 144 224 128 224
WIRE 240 240 240 176
WIRE 256 240 240 240
WIRE 352 240 352 176
WIRE 368 240 352 240
WIRE 496 240 496 208
WIRE 800 240 768 240
WIRE 864 240 864 -48
WIRE 864 240 800 240
WIRE 976 240 976 96
WIRE -288 272 -288 -144
WIRE 864 288 864 240
WIRE 208 304 208 272
WIRE 320 320 320 288
WIRE 432 320 432 288
WIRE 576 320 576 16
WIRE 704 320 704 288
WIRE 800 336 800 304
WIRE -208 352 -208 208
WIRE -176 352 -208 352
WIRE -176 384 -176 352
WIRE -288 416 -288 352
WIRE -208 416 -208 352
WIRE -208 416 -288 416
WIRE -112 416 -112 272
WIRE -112 416 -208 416
WIRE 208 416 208 384
WIRE 208 416 -112 416
WIRE 320 416 320 400
WIRE 320 416 208 416
WIRE 432 416 432 400
WIRE 432 416 320 416
WIRE 496 416 496 320
WIRE 496 416 432 416
WIRE 576 416 576 400
WIRE 576 416 496 416
WIRE 704 416 704 400
WIRE 704 416 576 416
WIRE 800 416 800 400
WIRE 800 416 704 416
WIRE 864 416 864 352
WIRE 864 416 800 416
WIRE 976 416 976 304
WIRE 976 416 864 416
WIRE 1024 416 1024 128
WIRE 1024 416 976 416
FLAG 144 144 0
FLAG -176 384 0
SYMBOL npn2 -64 128 R0
WINDOW 0 -1 9 Left 0
WINDOW 3 20 47 Left 0
SYMATTR InstName Q1
SYMATTR Value 2N4401
SYMBOL pnp2 16 80 M180
WINDOW 0 -6 87 Left 0
WINDOW 3 18 48 Left 0
SYMATTR InstName Q2
SYMATTR Value 2N4403
SYMBOL njf 448 64 R0
WINDOW 0 22 9 Left 0
WINDOW 3 -69 46 Left 0
SYMATTR InstName J1
SYMATTR Value 2N4093
SYMBOL res 64 -144 R0
WINDOW 0 34 45 Left 0
WINDOW 3 30 83 Left 0
SYMATTR InstName R1
SYMATTR Value 100
SYMBOL pnp2 144 80 M180
WINDOW 0 -6 87 Left 0
WINDOW 3 18 48 Left 0
SYMATTR InstName Q3
SYMATTR Value 2N4403
SYMBOL res 192 -144 R0
WINDOW 0 34 47 Left 0
WINDOW 3 31 85 Left 0
SYMATTR InstName R2
SYMATTR Value 100
SYMBOL cap -32 80 R90
WINDOW 0 15 56 VBottom 0
WINDOW 3 -11 0 VTop 0
SYMATTR InstName C1
SYMATTR Value 100p
SYMBOL polcap -128 208 R0
WINDOW 3 24 64 Left 0
SYMATTR InstName C2
SYMATTR Value 1µ
SYMATTR Description Capacitor
SYMATTR Type cap
SYMATTR SpiceLine V=50 Irms=36m Rser=3.5 MTBF=2000 Lser=0 mfg="Nichicon" pn="UPL1H010MAH" type="Al electrolytic" ppPkg=1
SYMBOL Robertugo\\Pote -192 112 M0
WINDOW 0 -16 -6 Left 0
WINDOW 3 -67 19 Left 0
WINDOW 123 -41 45 Center 0
SYMATTR InstName Ut
SYMATTR Value Rt=25k
SYMBOL res -224 -48 R0
SYMATTR InstName R3
SYMATTR Value 330
SYMBOL npn2 144 176 R0
WINDOW 0 51 24 Left 0
WINDOW 3 17 47 Left 0
SYMATTR InstName Q4
SYMATTR Value 2N4401
SYMBOL res 128 208 R90
WINDOW 0 17 110 VBottom 0
WINDOW 3 -12 23 VTop 0
SYMATTR InstName R4
SYMATTR Value 220
SYMBOL diode 256 64 M90
WINDOW 0 -5 33 VBottom 0
WINDOW 3 34 35 VTop 0
SYMATTR InstName D1
SYMATTR Value 1N914
SYMBOL cap 224 112 R90
WINDOW 0 15 54 VBottom 0
WINDOW 3 -12 4 VTop 0
SYMATTR InstName Ct
SYMATTR Value 10n
SYMBOL npn2 256 192 R0
WINDOW 0 51 24 Left 0
WINDOW 3 18 48 Left 0
SYMATTR InstName Q5
SYMATTR Value 2N4401
SYMBOL res 192 288 R0
WINDOW 0 -32 31 Left 0
WINDOW 3 -34 64 Left 0
SYMATTR InstName R5
SYMATTR Value 100
SYMBOL npn2 368 192 R0
WINDOW 0 51 24 Left 0
WINDOW 3 18 48 Left 0
SYMATTR InstName Q6
SYMATTR Value 2N4401
SYMBOL res 304 304 R0
WINDOW 0 -32 31 Left 0
WINDOW 3 -34 64 Left 0
SYMATTR InstName R6
SYMATTR Value 100
SYMBOL res 416 304 R0
WINDOW 0 -32 31 Left 0
WINDOW 3 -34 64 Left 0
SYMATTR InstName R7
SYMATTR Value 100
SYMBOL res 480 224 R0
SYMATTR InstName R8
SYMATTR Value 1k
SYMBOL pnp2 640 16 R180
WINDOW 0 66 75 Left 0
WINDOW 3 18 48 Left 0
SYMATTR InstName Q7
SYMATTR Value 2N4403
SYMBOL res 640 -144 R0
WINDOW 0 -27 29 Left 0
WINDOW 3 -27 65 Left 0
SYMATTR InstName R9
SYMATTR Value 47
SYMBOL npn2 592 48 R0
WINDOW 0 66 21 Left 0
WINDOW 3 20 47 Left 0
SYMATTR InstName Q8
SYMATTR Value 2N4401
SYMBOL npn2 816 48 M0
WINDOW 0 73 20 Left 0
WINDOW 3 20 47 Left 0
SYMATTR InstName Q9
SYMATTR Value 2N4401
SYMBOL res 560 304 R0
WINDOW 0 -36 26 Left 0
WINDOW 3 -34 64 Left 0
SYMATTR InstName R10
SYMATTR Value 680
SYMBOL npn2 768 192 M0
WINDOW 0 52 25 Left 0
WINDOW 3 20 47 Left 0
SYMATTR InstName Q10
SYMATTR Value 2N4401
SYMBOL res 688 304 R0
WINDOW 0 -36 26 Left 0
WINDOW 3 -34 64 Left 0
SYMATTR InstName R11
SYMATTR Value 27
SYMBOL diode 784 240 R0
WINDOW 0 -46 46 Left 0
WINDOW 3 -56 70 Left 0
SYMATTR InstName D2
SYMATTR Value 1N914
SYMBOL diode 784 336 R0
WINDOW 0 -50 40 Left 0
WINDOW 3 -56 65 Left 0
SYMATTR InstName D3
SYMATTR Value 1N914
SYMBOL cap 880 288 M0
WINDOW 0 19 8 Left 0
WINDOW 3 18 52 Left 0
SYMATTR InstName C3
SYMATTR Value 10n
SYMBOL res 848 -144 R0
WINDOW 0 -38 31 Left 0
WINDOW 3 -36 63 Left 0
SYMATTR InstName R12
SYMATTR Value 2k2
SYMBOL res 816 0 R0
WINDOW 0 -38 31 Left 0
WINDOW 3 -38 52 Left 0
SYMATTR InstName R13
SYMATTR Value 4k7
SYMBOL diode 480 0 R90
WINDOW 0 17 1 VBottom 0
WINDOW 3 -9 83 VTop 0
SYMATTR InstName D4
SYMATTR Value 1N914
SYMBOL Robertugo\\Pote 1008 32 R0
WINDOW 0 -65 -4 Left 0
WINDOW 3 -67 19 Left 0
WINDOW 123 -41 45 Center 0
SYMATTR InstName Ubias
SYMATTR Value Rt=10k
SYMBOL cap 992 240 M0
WINDOW 0 42 33 Left 0
WINDOW 3 20 51 Left 0
SYMATTR InstName C4
SYMATTR Value 100p
SYMBOL res 976 80 R90
WINDOW 0 2 71 VBottom 0
WINDOW 3 32 56 VTop 0
SYMATTR InstName R14
SYMATTR Value 1k
SYMBOL voltage -288 256 R0
WINDOW 3 -8 57 Left 0
SYMATTR InstName Vcc
SYMATTR Value 8
TEXT -186 -118 Left 0 !.tran 10m startup
