Version 4
SHEET 1 880 680
WIRE -16 -80 -16 -96
WIRE -144 32 -176 32
WIRE -16 32 -16 -16
WIRE -16 32 -64 32
WIRE 48 32 -16 32
WIRE 160 32 128 32
WIRE -176 48 -176 32
WIRE 80 96 64 96
WIRE 64 128 64 96
WIRE -16 144 -16 32
WIRE 32 144 -16 144
WIRE 160 160 160 32
WIRE 160 160 96 160
WIRE 192 160 160 160
WIRE -240 176 -288 176
WIRE 32 176 -240 176
WIRE -240 192 -240 176
WIRE 64 208 64 192
WIRE 80 208 64 208
WIRE -240 304 -240 272
WIRE -224 352 -240 352
WIRE -64 352 -80 352
WIRE -240 384 -240 352
WIRE -80 384 -80 352
WIRE -240 496 -240 464
WIRE -80 496 -80 464
FLAG -80 496 0
FLAG -240 496 0
FLAG -240 304 0
FLAG -176 48 0
FLAG -224 352 V+
FLAG -64 352 V-
FLAG 80 96 V+
FLAG 80 208 V-
FLAG 192 160 out
IOPIN 192 160 Out
FLAG -288 176 in
IOPIN -288 176 Out
FLAG -16 -96 0
SYMBOL voltage -240 368 R0
SYMATTR InstName V1
SYMATTR Value 5
SYMBOL voltage -80 368 R0
WINDOW 123 0 0 Left 0
WINDOW 39 0 0 Left 0
SYMATTR InstName V2
SYMATTR Value -5
SYMBOL voltage -240 176 R0
WINDOW 123 0 0 Left 0
WINDOW 39 0 0 Left 0
SYMATTR InstName V3
SYMATTR Value PULSE(0 1 0 1n 1n 10u 20u)
SYMBOL res 32 48 R270
WINDOW 0 32 56 VTop 0
WINDOW 3 0 56 VBottom 0
SYMATTR InstName R1
SYMATTR Value 10k
SYMBOL res -160 48 R270
WINDOW 0 32 56 VTop 0
WINDOW 3 0 56 VBottom 0
SYMATTR InstName R2
SYMATTR Value 10k
SYMBOL cap -32 -80 R0
SYMATTR InstName Cin
SYMATTR Value 5p
SYMBOL Robertugo\\OPAMP5 64 96 R0
SYMATTR InstName U2
SYMATTR SpiceModel 2pole
TEXT -312 0 Left 0 !.tran 50u
TEXT -280 -160 Left 0 ;2pole Universal Opamp
