Version 4
SHEET 1 1112 680
WIRE -240 352 -240 336
WIRE -240 256 -240 240
WIRE -240 240 -224 240
WIRE -32 32 -32 208
WIRE 32 208 32 192
WIRE 32 112 32 96
WIRE 0 256 0 304
WIRE 320 32 320 48
WIRE -112 240 -80 240
WIRE -80 240 -16 240
WIRE 48 224 112 224
WIRE 144 224 144 240
WIRE 144 304 144 352
WIRE 144 224 144 32
WIRE 144 224 112 224
WIRE 64 32 144 32
WIRE 0 32 -32 32
WIRE -80 144 -80 240
WIRE -32 208 -16 208
WIRE -80 80 -80 32
WIRE -80 32 -32 32
WIRE -224 240 -192 240
WIRE 320 352 320 336
WIRE 320 256 320 240
WIRE 320 240 336 240
WIRE 528 208 528 192
WIRE 528 112 528 96
WIRE 528 96 512 96
WIRE 496 192 496 96
WIRE 496 256 496 304
WIRE 448 240 480 240
WIRE 544 224 608 224
WIRE 784 224 784 240
WIRE 784 304 784 352
WIRE 608 224 640 224
WIRE 464 208 480 208
WIRE 336 240 368 240
WIRE 640 224 640 256
WIRE 640 320 640 352
WIRE 640 224 688 224
WIRE 688 224 688 256
WIRE 688 320 688 352
WIRE 688 224 784 224
WIRE 0 192 0 96
WIRE 0 96 16 96
WIRE 0 304 16 304
WIRE 16 96 32 96
WIRE 16 304 32 304
WIRE 208 32 224 32
WIRE 304 32 320 32
WIRE 416 32 432 32
WIRE 320 32 336 32
WIRE 512 96 496 96
WIRE 496 304 512 304
WIRE 512 304 528 304
FLAG -240 352 0
FLAG 320 48 0
FLAG 144 352 0
FLAG 112 224 2
FLAG -224 240 1
FLAG 320 352 0
FLAG 784 352 0
FLAG 608 224 4
FLAG 336 240 3
FLAG 464 208 0
FLAG 688 352 0
FLAG 640 352 0
FLAG 16 96 V+
FLAG 16 304 V-
FLAG 208 32 V-
FLAG 432 32 V+
FLAG 512 96 V+
FLAG 512 304 V-
SYMBOL voltage -240 240 R0
WINDOW 123 0 0 Left 0
WINDOW 39 0 0 Left 0
WINDOW 0 32 80 Left 0
WINDOW 3 0 144 Left 0
SYMATTR InstName V1
SYMATTR Value PULSE(0 5 .1u 10n 10n .7u 1.4u)
SYMBOL res -96 224 R90
WINDOW 0 0 56 VBottom 0
WINDOW 3 32 56 VTop 0
SYMATTR InstName R1
SYMATTR Value 10k
SYMBOL cap -64 80 M0
WINDOW 39 24 80 Left 0
WINDOW 3 24 56 Left 0
SYMATTR SpiceLine Rser=300
SYMATTR InstName C1
SYMATTR Value 390p
SYMBOL cap 64 16 R90
WINDOW 0 0 32 VBottom 0
WINDOW 3 32 32 VTop 0
WINDOW 39 -40 32 VCenter 0
SYMATTR InstName C2
SYMATTR Value 1n
SYMATTR SpiceLine Rpar=10k
SYMBOL res 16 96 R0
SYMATTR InstName R2
SYMATTR Value 62k
SYMBOL voltage 320 32 M270
WINDOW 0 32 56 VTop 0
WINDOW 3 -32 56 VBottom 0
WINDOW 123 -32 56 VBottom 0
WINDOW 39 -32 56 VBottom 0
SYMATTR InstName V2
SYMATTR Value 15
SYMBOL voltage 432 32 R90
WINDOW 123 32 56 VTop 0
WINDOW 39 32 56 VTop 0
WINDOW 0 -32 56 VBottom 0
WINDOW 3 32 56 VTop 0
SYMATTR InstName V3
SYMATTR Value 15
SYMBOL cap 128 240 R0
WINDOW 39 24 80 Left 0
WINDOW 3 24 56 Left 0
SYMATTR SpiceLine Rpar=1e6
SYMATTR InstName C3
SYMATTR Value 5p
SYMBOL voltage 320 240 R0
WINDOW 123 28 105 Left 0
WINDOW 39 0 0 Left 0
WINDOW 0 32 80 Left 0
WINDOW 3 0 144 Left 0
SYMATTR InstName V4
SYMATTR Value PULSE(-50m 50m .1u 10n 10n .7u 1.4u)
SYMBOL res 464 224 R90
WINDOW 0 0 56 VBottom 0
WINDOW 3 32 56 VTop 0
SYMATTR InstName R3
SYMATTR Value 50
SYMBOL res 512 96 R0
SYMATTR InstName R4
SYMATTR Value 56k
SYMBOL diode 656 320 R180
WINDOW 0 8 64 Right 0
WINDOW 3 24 0 Left 0
SYMATTR InstName D1
SYMATTR Value 1N914
SYMBOL diode 672 256 R0
WINDOW 3 24 64 Left 0
SYMATTR InstName D2
SYMATTR Value 1N914
SYMBOL cap 768 240 R0
WINDOW 39 24 80 Left 0
WINDOW 3 24 56 Left 0
SYMATTR SpiceLine Rpar=1.1e6
SYMATTR InstName C4
SYMATTR Value 2p
SYMBOL C:\\WINDOWS\\Desktop\\LTspice\\ca3080a 16 224 R0
SYMATTR InstName X1
SYMBOL C:\\WINDOWS\\Desktop\\LTspice\\ca3080a 512 224 R0
SYMATTR InstName X2
TEXT -258 -22 Left 0 !.tran 0 3u 1u 10n
TEXT -40 -88 Center 0 ;Large Signal Pulse Test
TEXT 544 -88 Center 0 ;Small Signal Pulse Test
