Version 4
SHEET 1 1968 1356
WIRE -224 -304 -224 -272
WIRE -368 -304 -368 -272
WIRE -368 -384 -368 -432
WIRE -224 -384 -224 -432
WIRE -928 -160 -928 -96
WIRE -928 -16 -928 32
WIRE -752 -160 -928 -160
WIRE 288 16 288 144
WIRE 224 32 224 16
WIRE 144 16 144 128
WIRE 288 224 288 256
WIRE -96 -160 -592 -160
WIRE -96 -32 -256 -32
WIRE -16 -208 -16 -320
WIRE -16 16 -16 32
WIRE 80 -224 80 -208
WIRE 80 -304 80 -320
WIRE 80 -320 -16 -320
WIRE -16 -320 -16 -336
WIRE 144 128 176 128
WIRE 144 128 80 128
WIRE 80 128 80 160
WIRE 80 272 80 240
WIRE -368 -32 -416 -32
WIRE -256 0 -256 -32
WIRE -256 -32 -288 -32
WIRE -256 64 -256 96
WIRE -416 96 -416 -32
WIRE -592 -160 -672 -160
FLAG -368 -272 0
FLAG -224 -272 0
FLAG -368 -432 Vcc
FLAG -224 -432 Vdd
FLAG -928 32 0
FLAG -928 -160 in
FLAG 224 32 0
FLAG 288 256 Vdd
FLAG -16 32 Vdd
FLAG -16 -336 Vcc
FLAG 176 128 out
FLAG 80 272 0
FLAG -592 -160 in1
FLAG -256 96 0
FLAG -416 96 0
SYMBOL voltage -368 -400 R0
SYMATTR InstName V1
SYMATTR Value 15
SYMBOL voltage -224 -400 R0
SYMATTR InstName V2
SYMATTR Value -15
SYMBOL voltage -928 -112 R0
WINDOW 3 26 122 Left 0
WINDOW 123 26 94 Left 0
WINDOW 39 0 0 Left 0
SYMATTR Value SINE(0 1m 10)
SYMATTR Value2 AC 1
SYMATTR InstName V3
SYMBOL res 272 128 R0
SYMATTR InstName R5
SYMATTR Value 15k
SYMBOL res 64 -320 R0
SYMATTR InstName R7
SYMATTR Value {Rbias}
SYMBOL res -768 -144 R270
WINDOW 0 32 56 VTop 0
WINDOW 3 0 56 VBottom 0
SYMATTR InstName Rgen
SYMATTR Value 10k
SYMBOL lm13700 -16 -96 R0
SYMATTR InstName U1
SYMBOL res 64 144 R0
SYMATTR InstName R2
SYMATTR Value 1
SYMBOL res -384 -16 R270
WINDOW 0 32 56 VTop 0
WINDOW 3 0 56 VBottom 0
SYMATTR InstName R8
SYMATTR Value 10k
SYMBOL cap -272 0 R0
SYMATTR InstName C2
SYMATTR Value 1
TEXT -936 -360 Left 0 !.op
TEXT -936 -312 Left 0 !.tran 10
TEXT -944 -256 Left 0 !.include ota.lib
TEXT -928 -608 Left 0 ;INPUT IMPEDANCE TEST\n \nThe input impedance depends on the connected circuit at the other input.
TEXT 96 -480 Left 0 !.param Ibias=0.5m\n.param Rbias=(15+15-1.5)/Ibias
TEXT -928 -488 Left 0 ;Vin1 = Vin * Rin/(Rin+Rgen)      \n \nRin =Rgen*Vin1/ (Vin - Vin1)
TEXT -512 -224 Left 0 ;Rin
LINE Normal -448 -192 -528 -192
LINE Normal -480 -208 -448 -192
LINE Normal -448 -192 -480 -208
LINE Normal -480 -208 -448 -192
LINE Normal -480 -208 -480 -208
LINE Normal -480 -176 -448 -192
LINE Normal -480 -176 -480 -176
