Version 4
SHEET 1 1968 1356
WIRE -160 -368 -160 -336
WIRE -304 -368 -304 -336
WIRE -304 -448 -304 -496
WIRE -160 -448 -160 -496
WIRE -896 -160 -896 -96
WIRE -896 -16 -896 32
WIRE -496 -160 -896 -160
WIRE 288 16 288 96
WIRE 224 32 224 16
WIRE 144 16 144 160
WIRE 288 176 288 208
WIRE 144 272 144 304
WIRE -96 -160 -320 -160
WIRE -96 -32 -208 -32
WIRE -16 -208 -16 -320
WIRE -16 16 -16 32
WIRE 80 -224 80 -208
WIRE 80 -304 80 -320
WIRE 80 -320 -16 -320
WIRE -16 -320 -16 -336
WIRE 144 160 176 160
WIRE 144 160 144 192
WIRE -96 256 -48 256
WIRE -48 256 -48 160
WIRE -48 160 -80 160
WIRE -160 160 -208 160
WIRE -208 160 -208 256
WIRE -208 256 -160 256
WIRE -208 160 -208 -32
WIRE -48 160 48 160
WIRE -320 -128 -320 -160
WIRE -320 -160 -416 -160
WIRE -320 -64 -320 -32
WIRE -320 48 -320 160
WIRE -320 160 -208 160
WIRE 48 208 48 160
WIRE 48 160 144 160
WIRE 48 272 48 304
FLAG -304 -336 0
FLAG -160 -336 0
FLAG -304 -496 Vcc
FLAG -160 -496 Vdd
FLAG -896 32 0
FLAG -896 -160 in
FLAG 224 32 0
FLAG 144 304 0
FLAG 288 208 Vdd
FLAG -16 32 Vdd
FLAG -16 -336 Vcc
FLAG 176 160 out
FLAG 48 304 0
SYMBOL voltage -304 -464 R0
SYMATTR InstName V1
SYMATTR Value 15
SYMBOL voltage -160 -464 R0
SYMATTR InstName V2
SYMATTR Value -15
SYMBOL voltage -896 -112 R0
WINDOW 3 26 122 Left 0
WINDOW 123 26 94 Left 0
WINDOW 39 0 0 Left 0
SYMATTR Value PULSE(-2.5 2.5 1u 10n 10n 4.99u 10u)
SYMATTR Value2 AC 1
SYMATTR InstName V3
SYMBOL res 272 80 R0
SYMATTR InstName R5
SYMATTR Value 15k
SYMBOL res 128 176 R0
SYMATTR InstName R6
SYMATTR Value 1MEG
SYMBOL res 64 -320 R0
SYMATTR InstName R7
SYMATTR Value 57k
SYMBOL res -512 -144 R270
WINDOW 0 32 56 VTop 0
WINDOW 3 0 56 VBottom 0
SYMATTR InstName R1
SYMATTR Value 10k
SYMBOL lm13700 -16 -96 R0
SYMATTR InstName U1
SYMBOL res -176 176 R270
WINDOW 0 32 56 VTop 0
WINDOW 3 0 56 VBottom 0
SYMATTR InstName R2
SYMATTR Value 10k
SYMBOL cap -160 272 R270
WINDOW 0 32 32 VTop 0
WINDOW 3 0 32 VBottom 0
SYMATTR InstName C1
SYMATTR Value 1n
SYMBOL cap -336 -128 R0
SYMATTR InstName C2
SYMATTR Value 390p
SYMBOL res -336 -48 R0
SYMATTR InstName R3
SYMATTR Value 300
SYMBOL cap 32 208 R0
SYMATTR InstName C3
SYMATTR Value 5p
TEXT -856 -416 Left 0 !.tran 50u
TEXT -856 -376 Left 0 !.include ota.lib
TEXT -856 -512 Left 0 ;PULSE RESPONSE TEST
