Version 4
SHEET 1 1968 1356
WIRE -160 -304 -160 -272
WIRE -304 -304 -304 -272
WIRE -304 -384 -304 -432
WIRE -160 -384 -160 -432
WIRE -672 -160 -672 -96
WIRE -672 -16 -672 32
WIRE -496 -160 -672 -160
WIRE 288 16 288 96
WIRE 224 32 224 16
WIRE 144 16 144 80
WIRE 288 176 288 208
WIRE 144 192 144 224
WIRE -96 -160 -416 -160
WIRE -96 -32 -144 -32
WIRE -16 -208 -16 -320
WIRE -16 16 -16 32
WIRE 80 -224 80 -208
WIRE 80 -304 80 -320
WIRE 80 -320 -16 -320
WIRE -16 -320 -16 -336
WIRE 144 80 176 80
WIRE 144 80 144 112
FLAG -304 -272 0
FLAG -160 -272 0
FLAG -304 -432 Vcc
FLAG -160 -432 Vdd
FLAG -672 32 0
FLAG -672 -160 in
FLAG 224 32 0
FLAG 144 224 0
FLAG -144 -32 0
FLAG 288 208 Vdd
FLAG -16 32 Vdd
FLAG -16 -336 Vcc
FLAG 176 80 out
SYMBOL voltage -304 -400 R0
SYMATTR InstName V1
SYMATTR Value 15
SYMBOL voltage -160 -400 R0
SYMATTR InstName V2
SYMATTR Value -15
SYMBOL voltage -672 -112 R0
WINDOW 3 26 122 Left 0
WINDOW 123 26 94 Left 0
WINDOW 39 0 0 Left 0
SYMATTR Value 0
SYMATTR Value2 AC 1
SYMATTR InstName V3
SYMBOL res 272 80 R0
SYMATTR InstName R5
SYMATTR Value 15k
SYMBOL res 128 96 R0
SYMATTR InstName R6
SYMATTR Value 100k
SYMBOL res 64 -320 R0
SYMATTR InstName R7
SYMATTR Value 57k
SYMBOL res -512 -144 R270
WINDOW 0 32 56 VTop 0
WINDOW 3 0 56 VBottom 0
SYMATTR InstName R1
SYMATTR Value 100
SYMBOL lm13700 -16 -96 R0
SYMATTR InstName U1
TEXT -688 -440 Left 0 !.op
TEXT -688 -392 Left 0 !.dc V3 -0.2 0.2 0.001
TEXT -696 -336 Left 0 !.include ota.lib
TEXT -688 -528 Left 0 ;OUTPUT VOLTAGE LIMIT TEST
