Version 4
SHEET 1 2752 2552
WIRE 2416 1856 2128 1856
WIRE 2528 1856 2416 1856
WIRE 2416 1872 2416 1856
WIRE 2528 1872 2528 1856
WIRE 2128 1904 2128 1856
WIRE 2192 1968 2176 1968
WIRE 2208 1968 2192 1968
WIRE 2304 1968 2288 1968
WIRE 2320 1968 2304 1968
WIRE 2416 1968 2416 1936
WIRE 2416 1968 2400 1968
WIRE 2480 1968 2416 1968
WIRE 2528 1968 2528 1952
WIRE 2528 1968 2480 1968
WIRE 1792 1984 1776 1984
WIRE 1872 1984 1856 1984
WIRE 2000 1984 1936 1984
WIRE 2080 1984 2000 1984
WIRE 2000 2000 2000 1984
WIRE 2480 2000 2480 1968
WIRE 2304 2016 2304 1968
WIRE 2000 2096 2000 2080
WIRE 2096 2096 2096 2032
WIRE 2304 2096 2304 2080
WIRE 2480 2096 2480 2080
WIRE 1776 2144 1776 1984
WIRE 2192 2144 2192 1968
WIRE 2192 2144 1776 2144
WIRE 1776 2160 1776 2144
WIRE 1776 2240 1776 2224
FLAG 2000 2096 0
FLAG 2480 2096 0
FLAG 2528 1856 OUT
FLAG 2096 2096 0
FLAG 1776 2240 0
FLAG 2304 2096 0
SYMBOL MISC\\XTAL 1872 1968 M90
WINDOW 0 0 32 VBottom 0
WINDOW 3 37 32 VTop 0
WINDOW 123 64 32 VTop 0
WINDOW 39 88 31 VTop 0
WINDOW 40 115 32 VTop 0
SYMATTR InstName Y1
SYMATTR Value .25p
SYMATTR Value2 Lser=1mH
SYMATTR SpiceLine Rser=.1
SYMATTR SpiceLine2 Cpar=50p
SYMBOL VOLTAGE 2480 1984 R0
SYMATTR InstName V1
SYMATTR Value 500
SYMBOL cap 2400 1872 R0
SYMATTR InstName C5
SYMATTR Value 10p
SYMBOL ind 2512 1856 R0
SYMATTR InstName L4
SYMATTR Value 6.3µ
SYMBOL RES 1984 1984 R0
SYMATTR InstName R2
SYMATTR Value 100K
SYMBOL 6BQ5 2128 1968 R0
SYMATTR InstName U1
SYMBOL cap 1856 1968 R90
WINDOW 0 0 32 VBottom 0
WINDOW 3 32 32 VTop 0
SYMATTR InstName C1
SYMATTR Value 1000p
SYMBOL cap 1760 2160 R0
SYMATTR InstName C2
SYMATTR Value 1000p
SYMBOL res 2416 1952 R90
WINDOW 0 0 56 VBottom 0
WINDOW 3 32 56 VTop 0
SYMATTR InstName R1
SYMATTR Value 22K
SYMBOL ind 2192 1984 R270
WINDOW 0 32 56 VTop 0
WINDOW 3 5 56 VBottom 0
SYMATTR InstName L1
SYMATTR Value 10m
SYMBOL cap 2288 2016 R0
SYMATTR InstName C3
SYMATTR Value .01µ
TEXT 2256 2192 Left 0 !.tran 3m startup
