Version 4
SHEET 1 1032 704
WIRE 544 224 432 224
WIRE 752 224 624 224
WIRE 848 256 800 256
WIRE 848 272 848 256
WIRE 432 304 432 224
WIRE 464 304 432 304
WIRE 752 304 752 224
WIRE 752 304 720 304
WIRE 464 368 320 368
WIRE 800 368 800 256
WIRE 800 368 720 368
WIRE 848 368 848 352
WIRE 320 384 320 368
WIRE 160 432 -96 432
WIRE 464 432 240 432
WIRE 864 432 720 432
WIRE -96 448 -96 432
WIRE 464 496 400 496
WIRE 800 496 720 496
WIRE 400 528 400 496
WIRE -96 544 -96 528
WIRE 800 544 800 496
WIRE 400 656 400 608
FLAG 848 368 0
FLAG 400 656 0
FLAG -96 544 0
FLAG 864 432 out
FLAG 800 544 0
FLAG 320 384 0
SYMBOL VOLTAGE -96 432 R0
WINDOW 39 0 0 Left 0
WINDOW 123 34 19 Left 0
WINDOW 0 -10 60 Left 0
SYMATTR Value2 AC 1
SYMATTR InstName V1
SYMATTR Value PULSE(-0.5 0.5 10u 1n 1n 10u 20u)
SYMBOL voltage 848 256 R0
SYMATTR InstName V2
SYMATTR Value 15V
SYMBOL voltage 400 512 R0
WINDOW 0 -13 57 Left 0
WINDOW 3 -52 2 Left 0
SYMATTR InstName V3
SYMATTR Value -15V
SYMBOL RES 528 240 R270
WINDOW 0 15 -5 VTop 0
WINDOW 3 42 122 VBottom 0
SYMATTR InstName Rg
SYMATTR Value 5.555k
SYMBOL res 144 448 R270
WINDOW 0 17 7 VTop 0
WINDOW 3 44 102 VBottom 0
SYMATTR InstName R3
SYMATTR Value 1k
SYMBOL INA111 592 400 R0
WINDOW 3 4 111 Center 0
WINDOW 0 0 -114 Center 0
SYMATTR InstName U1
TEXT -112 192 Left 0 !.tran 50u
TEXT 464 184 Left 0 ;V=  1 + 50kOhm / Rg
TEXT -112 216 Left 0 !.op
TEXT -104 280 Left 0 ;Opamp hangs at -13.4V for 3us\nif Rg<8.13k at the beginning of simulation.\nI have no explanation for that wrong\noperating point solution at startup.
