Version 4
SHEET 1 1208 904
WIRE 160 160 160 144
WIRE -256 192 -272 192
WIRE 112 192 -256 192
WIRE -272 224 -272 192
WIRE 112 224 64 224
WIRE 64 240 64 224
WIRE 352 288 240 288
WIRE 400 288 352 288
WIRE -272 336 -272 304
WIRE 64 336 64 320
WIRE 112 336 64 336
WIRE 352 336 352 288
WIRE 112 368 64 368
WIRE 208 368 208 352
WIRE 160 416 160 400
WIRE -272 448 -272 416
WIRE 64 448 64 368
WIRE 64 448 -272 448
WIRE 352 448 352 416
WIRE -272 480 -272 448
WIRE 112 544 112 528
WIRE 224 544 224 528
WIRE -272 592 -272 560
WIRE -112 640 -112 624
WIRE 0 640 0 624
WIRE 112 640 112 624
WIRE 224 640 224 624
FLAG 160 144 VDD
FLAG 208 368 VREF
FLAG 224 640 0
FLAG -112 640 0
FLAG 224 528 VDD
FLAG -112 544 VBIAS
FLAG 400 288 VOUT1
FLAG -256 192 VIN
FLAG 0 640 0
FLAG 0 544 VREF
FLAG -272 592 VBIAS
FLAG 112 640 0
FLAG 112 528 VSS
FLAG 160 416 VSS
FLAG 352 448 0
SYMBOL voltage 224 528 R0
SYMATTR InstName V1
SYMATTR Value 5
SYMBOL voltage -112 528 R0
SYMATTR InstName V2
SYMATTR Value 2V
SYMBOL res 80 336 R180
WINDOW 0 36 76 Left 0
WINDOW 3 36 40 Left 0
SYMATTR InstName RG
SYMATTR Value 500
SYMBOL voltage -272 320 R0
WINDOW 3 39 57 Left 0
WINDOW 123 39 83 Left 0
WINDOW 39 24 44 Left 0
SYMATTR Value SINE(0mV 100uV 1kHz)
SYMATTR Value2 AC 1
SYMATTR InstName V3
SYMBOL voltage 0 528 R0
SYMATTR InstName V4
SYMATTR Value 1
SYMBOL res -288 464 R0
SYMATTR InstName R1
SYMATTR Value 10K
SYMBOL voltage 112 528 R0
SYMATTR InstName V5
SYMATTR Value 0
SYMBOL res 336 320 R0
SYMATTR InstName R2
SYMATTR Value 1e6
SYMBOL res -288 208 R0
SYMATTR InstName R3
SYMATTR Value 10
SYMBOL OpAmp.Add\\ina118 128 272 R0
SYMATTR InstName U1
TEXT -104 120 Left 0 ;Preamp: G=100
TEXT 536 192 Left 0 !.op
TEXT -232 696 Left 0 ;VBIAS,VREF for common mode range INA118
TEXT -104 160 Left 0 ;G=1+50000/Rg
TEXT 536 216 Left 0 !.step V4 1 2  .1
TEXT 464 560 Left 0 !.options itl1=500
TEXT 824 624 Left 0 ;.options itl6=100
TEXT 464 592 Left 0 !.options gmin=1e-10
TEXT 464 624 Left 0 !.options reltol=0.003
TEXT 472 504 Left 0 ;Control Panle -> SPICE  <Reset to Default Values>\nControl Panel -> SPICE -> Solver: Alternate
TEXT 536 256 Left 0 !.tran 0 10m 0 10u
TEXT 536 280 Left 0 !.options plotwinsize=0
TEXT 440 424 Left 0 ;Settings for Convergence
TEXT 440 456 Left 0 ;Watch the additional resistor R2 and R3.
TEXT 536 328 Left 0 ;.ac dec 100 1 100k
RECTANGLE Normal 1032 656 424 400
