Version 4
SHEET 1 880 680
WIRE -160 224 -176 224
WIRE -208 256 -288 256
WIRE -208 288 -288 288
WIRE -288 304 -288 288
WIRE -656 320 -704 320
WIRE -864 352 -864 320
WIRE -784 352 -784 320
WIRE -704 352 -704 320
WIRE -48 352 -80 352
WIRE -16 352 -48 352
WIRE -48 368 -48 352
WIRE -288 400 -288 384
WIRE -208 400 -288 400
WIRE -208 432 -288 432
WIRE -864 464 -864 432
WIRE -784 464 -784 432
WIRE -704 464 -704 432
WIRE -288 464 -288 432
WIRE -160 464 -176 464
WIRE -112 464 -112 416
WIRE -48 464 -48 448
FLAG -704 464 0
FLAG -16 352 out
IOPIN -16 352 Out
FLAG -864 464 0
FLAG -112 464 0
FLAG -784 464 0
FLAG -288 464 0
FLAG -48 464 0
FLAG -656 320 in
FLAG -288 256 in
IOPIN -288 256 In
FLAG -864 320 v+
FLAG -784 320 V-
FLAG -176 224 V+
FLAG -176 464 V-
SYMBOL res -304 288 R0
SYMATTR InstName R1
SYMATTR Value 100
SYMBOL voltage -864 336 R0
WINDOW 123 0 0 Left 0
WINDOW 39 0 0 Left 0
SYMATTR InstName V1
SYMATTR Value 5
SYMBOL voltage -784 336 R0
WINDOW 123 0 0 Left 0
WINDOW 39 0 0 Left 0
SYMATTR InstName V2
SYMATTR Value -5
SYMBOL res -64 352 R0
SYMATTR InstName R2
SYMATTR Value 10.0K
SYMBOL voltage -704 336 R0
WINDOW 39 0 0 Left 0
WINDOW 3 367 106 Right 0
SYMATTR Value PULSE(0 .005 0 1e-6 1e-6 .01 .02)
SYMATTR Value2 AC 1 0
SYMATTR InstName V3
SYMBOL ina118 -192 336 R0
WINDOW 0 48 -103 Left 0
WINDOW 3 48 -80 Left 0
SYMATTR InstName U1
TEXT -624 360 Left 0 ;.tran 0 0.03 0 10e-6
TEXT -624 384 Left 0 !.op
TEXT -624 296 Left 0 !.options itl1=500 itl2=500
TEXT -624 408 Left 0 !.ac dec 100 1 1MEG
TEXT -624 328 Left 0 ;.options itl6=500
TEXT -624 264 Left 0 !.options gmin=1e-11
