Version 4
SHEET 1 880 680
WIRE 224 48 -16 48
WIRE 48 128 -384 128
WIRE 96 128 48 128
WIRE 368 128 352 128
WIRE -16 144 -16 48
WIRE -384 160 -384 128
WIRE 368 192 368 128
WIRE 368 192 352 192
WIRE 384 192 368 192
WIRE -16 240 -16 224
WIRE -384 272 -384 240
WIRE 96 272 -16 272
WIRE 384 272 352 272
WIRE -16 288 -16 272
WIRE -16 384 -16 368
WIRE 224 384 224 336
WIRE 384 384 384 272
FLAG -16 240 0
FLAG -384 272 0
FLAG -16 384 0
FLAG 224 384 0
FLAG 384 384 0
FLAG 384 192 out
IOPIN 384 192 Out
FLAG 48 128 in
SYMBOL voltage -384 144 R0
WINDOW 3 -29 161 Left 0
WINDOW 123 18 5 Left 0
WINDOW 39 0 0 Left 0
WINDOW 0 -14 56 Left 0
SYMATTR Value PULSE(0 4 100u 1u 1u 100u 200u)
SYMATTR Value2 AC 1
SYMATTR InstName V1
SYMBOL voltage -16 272 R0
SYMATTR InstName V2
SYMATTR Value 5
SYMBOL voltage -16 128 R0
WINDOW 0 -14 59 Left 0
WINDOW 3 25 20 Left 0
SYMATTR InstName V3
SYMATTR Value 12
SYMBOL OpAmp.Add\\INA132E 224 192 R0
SYMATTR InstName U1
TEXT -272 64 Left 0 !.tran 500u
TEXT -272 112 Left 0 ;.ac dec 100 1k 1MEG
TEXT -376 256 Left 0 ;.noise V(out) V1 dec 100 1 1MEG
TEXT -272 88 Left 0 !.options plotwinsize=0
