Version 4
SHEET 1 880 680
WIRE 48 288 48 256
WIRE 48 176 48 128
WIRE 160 128 160 160
WIRE 160 288 160 240
WIRE 208 208 256 208
WIRE 48 128 160 128
FLAG 48 288 0
FLAG 160 288 0
SYMBOL voltage 48 160 M0
WINDOW 3 36 69 Invisible 0
WINDOW 123 0 0 Left 0
WINDOW 39 0 0 Left 0
WINDOW 0 37 41 Left 0
SYMATTR Value PULSE(0 10 0 100n 100n 10u 20u)
SYMATTR InstName V1
SYMBOL ind-mpp 144 144 R0
WINDOW 3 47 85 Left 0
SYMATTR Value N=100  DCR=0.1  IC=0
SYMATTR InstName U1
TEXT -306 186 Left 0 !.tran 300u
TEXT -304 224 Left 0 !.include MPP cores.lib
