Version 4
SHEET 1 880 680
WIRE -160 128 -224 128
WIRE 112 128 -160 128
WIRE -224 144 -224 128
WIRE -160 144 -160 128
WIRE 16 160 0 160
WIRE 160 160 96 160
WIRE 112 192 112 128
WIRE -96 208 -112 208
WIRE 0 208 0 160
WIRE 0 208 -16 208
WIRE 80 208 0 208
WIRE 160 224 160 160
WIRE 160 224 144 224
WIRE 176 224 160 224
WIRE 272 224 256 224
WIRE 288 224 272 224
WIRE -224 240 -224 224
WIRE -192 240 -224 240
WIRE -112 240 -112 208
WIRE -112 240 -192 240
WIRE -96 240 -112 240
WIRE 48 240 -16 240
WIRE 80 240 48 240
WIRE -224 256 -224 240
WIRE -192 256 -192 240
WIRE 288 256 288 224
WIRE 288 256 240 256
WIRE -160 272 -160 224
WIRE -80 304 -128 304
WIRE -64 304 -80 304
WIRE 48 304 48 240
WIRE 48 304 16 304
WIRE 80 304 48 304
WIRE 144 304 80 304
WIRE 240 304 240 256
WIRE 240 304 224 304
WIRE -112 336 -112 240
WIRE -112 336 -160 336
WIRE 288 336 288 320
WIRE -224 352 -224 336
WIRE 112 352 112 256
WIRE 112 352 -224 352
FLAG -192 256 0
FLAG 272 224 Out
FLAG -80 304 set
FLAG 80 304 ctrl
FLAG 288 336 0
SYMBOL Robertugo\\OPAMP5 112 160 R0
WINDOW 0 -26 64 Left 0
WINDOW 38 -107 32 Left 0
SYMATTR InstName U1
SYMATTR SpiceModel level2
SYMBOL voltage -224 240 R0
WINDOW 0 11 98 Left 0
WINDOW 3 -13 58 Left 0
WINDOW 123 0 0 Left 0
WINDOW 39 0 0 Left 0
SYMATTR InstName VL
SYMATTR Value 10
SYMBOL voltage -224 128 R0
WINDOW 0 9 14 Left 0
WINDOW 3 -13 58 Left 0
WINDOW 123 0 0 Left 0
WINDOW 39 0 0 Left 0
SYMATTR InstName VH
SYMATTR Value 10
SYMBOL res 0 192 R90
WINDOW 0 -5 73 VBottom 0
WINDOW 3 -5 28 VBottom 0
SYMATTR InstName R1
SYMATTR Value 50k
SYMBOL res 112 144 R90
WINDOW 0 15 104 VBottom 0
WINDOW 3 -17 34 VTop 0
SYMATTR InstName R2
SYMATTR Value 93.5k
SYMBOL res 272 208 R90
WINDOW 0 0 56 VBottom 0
WINDOW 3 32 59 VTop 0
SYMATTR InstName R3
SYMATTR Value 1e4
SYMBOL cap 304 256 M0
WINDOW 0 29 16 Left 0
SYMATTR InstName C1
SYMATTR Value 1µ
SYMBOL res 0 224 R90
WINDOW 0 13 96 VBottom 0
WINDOW 3 14 4 VBottom 0
SYMATTR InstName R4
SYMATTR Value 500k
SYMBOL res 32 288 R90
WINDOW 0 1 58 VBottom 0
WINDOW 3 -27 17 VTop 0
SYMATTR InstName R5
SYMATTR Value 1e4
SYMBOL res -176 128 R0
WINDOW 0 35 19 Left 0
WINDOW 3 34 45 Left 0
SYMATTR InstName R6
SYMATTR Value 1e4
SYMBOL Robertugo\\Pote -144 240 M0
WINDOW 0 -28 28 Left 0
WINDOW 3 -104 93 Left 0
WINDOW 123 -162 94 Center 0
SYMATTR InstName U2
SYMATTR Value Rt=5K
SYMATTR Value2 Set=.2
SYMBOL res 240 288 R90
WINDOW 0 13 102 VBottom 0
WINDOW 3 -14 22 VTop 0
SYMATTR InstName R7
SYMATTR Value 1e4
TEXT 126 146 Left 0 !.tran .1 startup
