Version 4
SHEET 1 880 680
WIRE 160 -128 144 -128
WIRE 304 -128 288 -128
WIRE 144 -96 144 -128
WIRE 288 -96 288 -128
WIRE 144 16 144 -16
WIRE 288 16 288 -16
WIRE 0 32 -32 32
WIRE 80 32 64 32
WIRE 176 96 96 96
WIRE 208 96 176 96
WIRE 176 112 176 96
WIRE -144 128 -176 128
WIRE -32 128 -32 32
WIRE -32 128 -64 128
WIRE -16 128 -32 128
WIRE 80 128 80 32
WIRE 80 128 64 128
WIRE -176 160 -176 128
WIRE 176 192 176 176
WIRE 80 208 80 128
WIRE 96 208 96 96
WIRE -32 224 -32 128
WIRE 48 224 -32 224
WIRE 272 240 112 240
WIRE 320 240 272 240
WIRE -400 256 -432 256
WIRE -208 256 -240 256
WIRE 48 256 -208 256
WIRE 272 272 272 240
WIRE -208 288 -208 256
WIRE 0 304 -32 304
WIRE 80 304 80 272
WIRE 80 304 0 304
WIRE 0 320 0 304
WIRE 96 320 96 272
WIRE -432 368 -432 256
WIRE 272 384 272 352
WIRE -208 400 -208 368
WIRE 0 400 0 384
WIRE 96 432 96 400
WIRE -432 512 -432 448
WIRE 96 512 96 496
FLAG -176 160 0
FLAG 272 384 0
FLAG 320 240 OUT
IOPIN 320 240 Out
FLAG 96 512 0
FLAG -32 304 VEE
IOPIN -32 304 In
FLAG 208 96 VCC
IOPIN 208 96 In
FLAG -240 256 IN
IOPIN -240 256 In
FLAG -208 400 0
FLAG -432 512 0
FLAG -400 256 IN
IOPIN -400 256 Out
FLAG 144 16 0
FLAG 288 16 0
FLAG 160 -128 VCC
FLAG 304 -128 VEE
FLAG 0 400 0
FLAG 176 192 0
SYMBOL ad8099 80 176 R0
SYMATTR InstName U1
SYMBOL res 80 304 R0
SYMATTR InstName R1
SYMATTR Value 50
SYMBOL cap 80 432 R0
SYMATTR InstName C2
SYMATTR Value 1p
SYMBOL res -32 144 R270
WINDOW 0 32 56 VTop 0
WINDOW 3 0 56 VBottom 0
SYMATTR InstName R2
SYMATTR Value 499
SYMBOL res -160 144 R270
WINDOW 0 32 56 VTop 0
WINDOW 3 0 56 VBottom 0
SYMATTR InstName R3
SYMATTR Value 124
SYMBOL cap 0 48 R270
WINDOW 0 32 32 VTop 0
WINDOW 3 0 32 VBottom 0
SYMATTR InstName C3
SYMATTR Value 0.5p
SYMBOL res 256 256 R0
SYMATTR InstName Rload
SYMATTR Value 1k
SYMBOL res -224 272 R0
SYMATTR InstName R4
SYMATTR Value 50
SYMBOL voltage -432 352 R0
WINDOW 123 0 0 Left 0
WINDOW 39 24 132 Left 0
SYMATTR InstName V1
SYMATTR Value PULSE(-.4 .4 .1u 1n 1n 49n .1u)
SYMATTR SpiceLine Rser=50
SYMBOL voltage 144 -112 R0
WINDOW 123 0 0 Left 0
WINDOW 39 24 132 Left 0
SYMATTR InstName V2
SYMATTR Value 5
SYMATTR SpiceLine Rser=.1
SYMBOL voltage 288 -112 R0
WINDOW 123 0 0 Left 0
WINDOW 39 24 132 Left 0
SYMATTR InstName V3
SYMATTR Value -5
SYMATTR SpiceLine Rser=.1
SYMBOL cap 160 112 R0
SYMATTR InstName C1
SYMATTR Value .1µ
SYMBOL cap -16 320 R0
SYMATTR InstName C4
SYMATTR Value .1µ
TEXT -448 -32 Left 0 !.tran 0 .5u 0 .5n
TEXT -448 -8 Left 0 !.options plotwinsize=0
TEXT -432 -120 Left 0 ;AMPLIFIER WITH GAIN=5
