Version 4
SHEET 1 6296 1412
WIRE 2592 -96 1280 -96
WIRE 1280 32 1280 -96
WIRE 1648 64 1632 64
WIRE 1664 64 1648 64
WIRE 1952 64 1920 64
WIRE 2240 64 2208 64
WIRE 1280 80 1248 80
WIRE 2240 96 2192 96
WIRE 2592 96 2592 -96
WIRE 2624 96 2592 96
WIRE 1600 160 1280 160
WIRE 1648 160 1648 64
WIRE 1648 160 1600 160
WIRE 1952 208 1648 208
WIRE 2192 208 2192 96
WIRE 2192 208 1952 208
WIRE 1280 272 1280 160
WIRE 1648 304 1648 208
WIRE 1648 304 1632 304
WIRE 1280 384 1280 320
WIRE 1648 384 1648 304
WIRE 1280 416 1648 384
WIRE 1648 416 1280 384
WIRE 1280 512 1280 416
WIRE 1648 544 1648 416
WIRE 1648 544 1632 544
WIRE 2592 688 1280 688
WIRE 1280 816 1280 688
WIRE 1648 848 1632 848
WIRE 1664 848 1648 848
WIRE 1952 848 1920 848
WIRE 2240 848 2208 848
WIRE 1280 864 1248 864
WIRE 2240 880 2192 880
WIRE 2592 880 2592 688
WIRE 2624 880 2592 880
WIRE 1616 944 1280 944
WIRE 1648 944 1648 848
WIRE 1648 944 1616 944
WIRE 2000 992 1648 992
WIRE 2192 992 2192 880
WIRE 2192 992 2000 992
WIRE 1280 1056 1280 944
WIRE 1648 1088 1648 992
WIRE 1648 1088 1632 1088
WIRE 1280 1168 1280 1104
WIRE 1648 1168 1648 1088
WIRE 1280 1200 1648 1168
WIRE 1648 1200 1280 1168
WIRE 1280 1296 1280 1200
WIRE 1648 1328 1648 1200
WIRE 1648 1328 1632 1328
FLAG 1104 0 VDD
IOPIN 1104 0 In
FLAG 992 80 data
IOPIN 992 80 In
FLAG 1456 -16 VDD
FLAG 1456 128 0
FLAG 1776 144 0
FLAG 2064 144 0
FLAG 2416 16 VDD
FLAG 1776 -16 VDD
FLAG 2064 -16 VDD
FLAG 2416 176 0
FLAG 2736 176 0
FLAG 2736 16 VDD
FLAG 2880 96 SL
IOPIN 2880 96 Out
FLAG 1456 368 0
FLAG 1456 608 0
FLAG 1456 224 VDD
FLAG 1456 464 VDD
FLAG 1280 560 reset
FLAG 1104 160 GND
IOPIN 1104 160 In
FLAG 992 864 dclock
IOPIN 992 864 In
FLAG 1456 768 VDD
FLAG 1456 912 0
FLAG 1776 928 0
FLAG 2064 928 0
FLAG 2416 800 VDD
FLAG 1776 768 VDD
FLAG 2064 768 VDD
FLAG 2416 960 0
FLAG 2736 960 0
FLAG 2736 800 VDD
FLAG 2880 880 SR
IOPIN 2880 880 Out
FLAG 1456 1152 0
FLAG 1456 1392 0
FLAG 1456 1008 VDD
FLAG 1456 1248 VDD
FLAG 1280 1344 reset
FLAG 1104 944 0
FLAG 1104 784 VDD
FLAG 2240 128 reset
FLAG 2240 912 reset
FLAG 2592 480 reset
FLAG 2416 576 0
FLAG 2416 384 VDD
FLAG 1952 208 A
FLAG 1600 160 B
FLAG 1616 944 C
FLAG 2240 496 C
FLAG 2240 432 A
FLAG 2240 464 B
FLAG 2000 992 D
FLAG 2240 528 D
SYMBOL INV_20_10 1024 16 R0
SYMATTR InstName U1
SYMBOL NAND_2 1232 80 R0
SYMATTR InstName U2
SYMBOL INV_20_10 1696 0 R0
SYMATTR InstName U3
SYMBOL INV_20_10 1984 0 R0
SYMATTR InstName U4
SYMBOL NAND_3 2192 112 R0
SYMATTR InstName U5
SYMBOL INV_20_10 2656 32 R0
SYMATTR InstName U6
SYMBOL NAND_2 1232 320 R0
SYMATTR InstName U7
SYMBOL NAND_2 1232 560 R0
SYMATTR InstName U8
SYMBOL INV_20_10 1024 800 R0
SYMATTR InstName U9
SYMBOL NAND_2 1232 864 R0
SYMATTR InstName U10
SYMBOL INV_20_10 1696 784 R0
SYMATTR InstName U11
SYMBOL INV_20_10 1984 784 R0
SYMATTR InstName U12
SYMBOL NAND_3 2192 896 R0
SYMATTR InstName U13
SYMBOL INV_20_10 2656 816 R0
SYMATTR InstName U14
SYMBOL NAND_2 1232 1104 R0
SYMATTR InstName U15
SYMBOL NAND_2 1232 1344 R0
SYMATTR InstName U16
SYMBOL NAND_4 2192 480 R0
SYMATTR InstName U17
TEXT 1824 488 Left 0 !.lib cmosedu_models.txt
