Version 4
SHEET 1 1496 680
WIRE 272 -368 272 -384
WIRE 272 -272 272 -288
WIRE 304 -384 272 -384
WIRE 480 -384 464 -384
FLAG 272 -272 0
FLAG 480 -384 Resistor_E6
IOPIN 480 -384 Out
SYMBOL voltage 272 -384 M0
WINDOW 123 0 0 Left 0
WINDOW 39 0 0 Left 0
SYMATTR InstName Vres
SYMATTR Value 0
SYMBOL eseries 384 -384 R0
SYMATTR InstName X1
TEXT 94 -526 Left 0 !# logarithmic sweep\n.dc dec Vres 1 10k 100
TEXT 96 -552 Left 0 ;Sweep range of wanted resistor values
TEXT 94 -470 Left 0 ;# linear sweep\n.dc Vres 1 10k 0.1
TEXT 96 -632 Left 0 ;Sweeping a resistor across multiple decades of the standard values
