.SUBCKT BLF245_12.5V_50MA 1 2 3 4 5 
* HZ S MA R 
* Z1=50.000000 Z2=50.000000 Z3=50.000000 Z4=50.000000

R1N 1 10 -5.000000e+01
R1P 10 11 1.000000e+02
R2N 2 20 -5.000000e+01
R2P 20 21 1.000000e+02
R3N 3 30 -5.000000e+01
R3P 30 31 1.000000e+02
R4N 4 40 -5.000000e+01
R4P 40 41 1.000000e+02

*S11 FREQ DB PHASE
E11 11 12 FREQ {V(10,5)}=
+(  5.000000e+06gHz, -8.191722e-01, -4.830000e+01)
+(  2.500000e+07gHz, -3.223018e+00, -1.259000e+02)
+(  4.500000e+07gHz, -3.098039e+00, -1.430000e+02)
+(  6.500000e+07gHz, -2.615366e+00, -1.499000e+02)
+(  8.500000e+07gHz, -2.158108e+00, -1.541000e+02)
+(  1.050000e+08gHz, -1.723723e+00, -1.583000e+02)
+(  1.250000e+08gHz, -1.514414e+00, -1.619000e+02)
+(  1.450000e+08gHz, -1.209615e+00, -1.644000e+02)
+(  1.650000e+08gHz, -1.012200e+00, -1.666000e+02)
+(  1.850000e+08gHz, -8.191722e-01, -1.691000e+02)
+(  2.050000e+08gHz, -7.242435e-01, -1.716000e+02)
+(  2.250000e+08gHz, -7.242435e-01, -1.735000e+02)
+(  2.450000e+08gHz, -5.374429e-01, -1.751000e+02)
+(  2.650000e+08gHz, -4.455279e-01, -1.768000e+02)
+(  2.850000e+08gHz, -4.455279e-01, -1.786000e+02)
+(  3.050000e+08gHz, -4.455279e-01, -1.802000e+02)
+(  3.250000e+08gHz, -4.455279e-01, -1.814000e+02)
+(  3.450000e+08gHz, -3.545753e-01, -1.828000e+02)
+(  3.650000e+08gHz, -2.645653e-01, -1.842000e+02)
+(  3.850000e+08gHz, -2.645653e-01, -1.856000e+02)
+(  4.050000e+08gHz, -3.545753e-01, -1.867000e+02)
+(  4.250000e+08gHz, -3.545753e-01, -1.878000e+02)
+(  4.450000e+08gHz, -2.645653e-01, -1.891000e+02)
+(  4.650000e+08gHz, -2.645653e-01, -1.904000e+02)
+(  4.850000e+08gHz, -2.645653e-01, -1.915000e+02)
+(  5.050000e+08gHz, -3.545753e-01, -1.925000e+02)
+(  5.250000e+08gHz, -2.645653e-01, -1.935000e+02)
+(  5.450000e+08gHz, -2.645653e-01, -1.948000e+02)
+(  5.650000e+08gHz, -2.645653e-01, -1.960000e+02)
+(  5.850000e+08gHz, -2.645653e-01, -1.969000e+02)
+(  6.050000e+08gHz, -3.545753e-01, -1.978000e+02)
+(  6.250000e+08gHz, -3.545753e-01, -1.989000e+02)
+(  6.450000e+08gHz, -2.645653e-01, -2.001000e+02)
+(  6.650000e+08gHz, -3.545753e-01, -2.012000e+02)
+(  6.850000e+08gHz, -3.545753e-01, -2.021000e+02)
+(  7.050000e+08gHz, -3.545753e-01, -2.030000e+02)
+(  7.250000e+08gHz, -3.545753e-01, -2.042000e+02)
+(  7.450000e+08gHz, -3.545753e-01, -2.053000e+02)
+(  7.650000e+08gHz, -4.455279e-01, -2.064000e+02)
+(  7.850000e+08gHz, -4.455279e-01, -2.071000e+02)
+(  8.050000e+08gHz, -5.374429e-01, -2.077000e+02)
+(  8.250000e+08gHz, -5.374429e-01, -2.084000e+02)
+(  8.450000e+08gHz, -4.455279e-01, -2.095000e+02)
+(  8.650000e+08gHz, -4.455279e-01, -2.106000e+02)
+(  8.850000e+08gHz, -4.455279e-01, -2.115000e+02)
+(  9.050000e+08gHz, -4.455279e-01, -2.125000e+02)
+(  9.250000e+08gHz, -4.455279e-01, -2.136000e+02)
+(  9.450000e+08gHz, -4.455279e-01, -2.148000e+02)
+(  9.650000e+08gHz, -4.455279e-01, -2.158000e+02)
+(  9.850000e+08gHz, -3.545753e-01, -2.169000e+02)

*S12 FREQ DB PHASE
E12 12 13 FREQ {V(20,5)}=
+(  5.000000e+06gHz,  2.820542e+01,  1.471000e+02)
+(  2.500000e+07gHz,  1.964542e+01,  9.530000e+01)
+(  4.500000e+07gHz,  1.440319e+01,  7.700000e+01)
+(  6.500000e+07gHz,  1.065509e+01,  6.480000e+01)
+(  8.500000e+07gHz,  7.676307e+00,  5.580000e+01)
+(  1.050000e+08gHz,  5.153571e+00,  4.780000e+01)
+(  1.250000e+08gHz,  2.860296e+00,  4.120000e+01)
+(  1.450000e+08gHz,  8.278537e-01,  3.640000e+01)
+(  1.650000e+08gHz, -1.012200e+00,  3.260000e+01)
+(  1.850000e+08gHz, -2.615366e+00,  2.910000e+01)
+(  2.050000e+08gHz, -4.013189e+00,  2.580000e+01)
+(  2.250000e+08gHz, -5.514483e+00,  2.330000e+01)
+(  2.450000e+08gHz, -6.935750e+00,  2.190000e+01)
+(  2.650000e+08gHz, -7.958800e+00,  2.090000e+01)
+(  2.850000e+08gHz, -9.118639e+00,  1.990000e+01)
+(  3.050000e+08gHz, -1.017277e+01,  1.900000e+01)
+(  3.250000e+08gHz, -1.105684e+01,  1.900000e+01)
+(  3.450000e+08gHz, -1.204120e+01,  1.950000e+01)
+(  3.650000e+08gHz, -1.276544e+01,  2.020000e+01)
+(  3.850000e+08gHz, -1.355561e+01,  2.120000e+01)
+(  4.050000e+08gHz, -1.442493e+01,  2.230000e+01)
+(  4.250000e+08gHz, -1.489455e+01,  2.370000e+01)
+(  4.450000e+08gHz, -1.591760e+01,  2.560000e+01)
+(  4.650000e+08gHz, -1.591760e+01,  2.780000e+01)
+(  4.850000e+08gHz, -1.647817e+01,  3.020000e+01)
+(  5.050000e+08gHz, -1.707744e+01,  3.220000e+01)
+(  5.250000e+08gHz, -1.707744e+01,  3.450000e+01)
+(  5.450000e+08gHz, -1.772113e+01,  3.710000e+01)
+(  5.650000e+08gHz, -1.772113e+01,  3.960000e+01)
+(  5.850000e+08gHz, -1.772113e+01,  4.210000e+01)
+(  6.050000e+08gHz, -1.772113e+01,  4.420000e+01)
+(  6.250000e+08gHz, -1.772113e+01,  4.600000e+01)
+(  6.450000e+08gHz, -1.772113e+01,  4.860000e+01)
+(  6.650000e+08gHz, -1.772113e+01,  5.140000e+01)
+(  6.850000e+08gHz, -1.772113e+01,  5.250000e+01)
+(  7.050000e+08gHz, -1.772113e+01,  5.310000e+01)
+(  7.250000e+08gHz, -1.772113e+01,  5.480000e+01)
+(  7.450000e+08gHz, -1.772113e+01,  5.710000e+01)
+(  7.650000e+08gHz, -1.707744e+01,  5.880000e+01)
+(  7.850000e+08gHz, -1.707744e+01,  5.900000e+01)
+(  8.050000e+08gHz, -1.707744e+01,  5.910000e+01)
+(  8.250000e+08gHz, -1.707744e+01,  6.050000e+01)
+(  8.450000e+08gHz, -1.647817e+01,  6.290000e+01)
+(  8.650000e+08gHz, -1.647817e+01,  6.470000e+01)
+(  8.850000e+08gHz, -1.591760e+01,  6.410000e+01)
+(  9.050000e+08gHz, -1.591760e+01,  6.300000e+01)
+(  9.250000e+08gHz, -1.591760e+01,  6.390000e+01)
+(  9.450000e+08gHz, -1.591760e+01,  6.590000e+01)
+(  9.650000e+08gHz, -1.539102e+01,  6.680000e+01)
+(  9.850000e+08gHz, -1.397940e+01,  7.350000e+01)

*S13 FREQ DB PHASE
E13 13 14 FREQ {V(30,5)}=
+(  5.000000e+06gHz, -3.045757e+01,  5.790000e+01)
+(  2.500000e+07gHz, -2.443697e+01,  8.500000e+00)
+(  4.500000e+07gHz, -2.443697e+01, -7.400000e+00)
+(  6.500000e+07gHz, -2.602060e+01, -1.670000e+01)
+(  8.500000e+07gHz, -2.795880e+01, -2.260000e+01)
+(  1.050000e+08gHz, -2.795880e+01, -2.680000e+01)
+(  1.250000e+08gHz, -3.045757e+01, -2.800000e+01)
+(  1.450000e+08gHz, -3.397940e+01, -2.480000e+01)
+(  1.650000e+08gHz, -3.397940e+01, -1.600000e+01)
+(  1.850000e+08gHz, -4.000000e+01,  2.100000e+00)
+(  2.050000e+08gHz, -4.000000e+01,  2.970000e+01)
+(  2.250000e+08gHz, -4.000000e+01,  5.450000e+01)
+(  2.450000e+08gHz, -3.397940e+01,  6.960000e+01)
+(  2.650000e+08gHz, -3.397940e+01,  7.770000e+01)
+(  2.850000e+08gHz, -3.045757e+01,  8.150000e+01)
+(  3.050000e+08gHz, -3.045757e+01,  8.340000e+01)
+(  3.250000e+08gHz, -2.795880e+01,  8.480000e+01)
+(  3.450000e+08gHz, -2.795880e+01,  8.590000e+01)
+(  3.650000e+08gHz, -2.602060e+01,  8.650000e+01)
+(  3.850000e+08gHz, -2.602060e+01,  8.650000e+01)
+(  4.050000e+08gHz, -2.602060e+01,  8.600000e+01)
+(  4.250000e+08gHz, -2.443697e+01,  8.570000e+01)
+(  4.450000e+08gHz, -2.443697e+01,  8.610000e+01)
+(  4.650000e+08gHz, -2.309804e+01,  8.620000e+01)
+(  4.850000e+08gHz, -2.309804e+01,  8.530000e+01)
+(  5.050000e+08gHz, -2.193820e+01,  8.450000e+01)
+(  5.250000e+08gHz, -2.193820e+01,  8.450000e+01)
+(  5.450000e+08gHz, -2.193820e+01,  8.460000e+01)
+(  5.650000e+08gHz, -2.091515e+01,  8.410000e+01)
+(  5.850000e+08gHz, -2.091515e+01,  8.310000e+01)
+(  6.050000e+08gHz, -2.000000e+01,  8.250000e+01)
+(  6.250000e+08gHz, -2.000000e+01,  8.270000e+01)
+(  6.450000e+08gHz, -1.917215e+01,  8.310000e+01)
+(  6.650000e+08gHz, -1.917215e+01,  8.190000e+01)
+(  6.850000e+08gHz, -1.917215e+01,  8.020000e+01)
+(  7.050000e+08gHz, -1.841638e+01,  8.020000e+01)
+(  7.250000e+08gHz, -1.841638e+01,  8.120000e+01)
+(  7.450000e+08gHz, -1.772113e+01,  8.100000e+01)
+(  7.650000e+08gHz, -1.772113e+01,  7.920000e+01)
+(  7.850000e+08gHz, -1.772113e+01,  7.790000e+01)
+(  8.050000e+08gHz, -1.772113e+01,  7.820000e+01)
+(  8.250000e+08gHz, -1.707744e+01,  7.970000e+01)
+(  8.450000e+08gHz, -1.647817e+01,  8.010000e+01)
+(  8.650000e+08gHz, -1.647817e+01,  7.820000e+01)
+(  8.850000e+08gHz, -1.647817e+01,  7.610000e+01)
+(  9.050000e+08gHz, -1.647817e+01,  7.480000e+01)
+(  9.250000e+08gHz, -1.591760e+01,  7.600000e+01)
+(  9.450000e+08gHz, -1.591760e+01,  7.300000e+01)
+(  9.650000e+08gHz, -1.647817e+01,  7.490000e+01)
+(  9.850000e+08gHz,  4.910253e+00,  4.160000e+01)

*S14 FREQ DB PHASE
E14 14 5 FREQ {V(40,5)}=
+(  5.000000e+06gHz, -7.242435e-01, -4.780000e+01)
+(  2.500000e+07gHz, -3.098039e+00, -1.247000e+02)
+(  4.500000e+07gHz, -3.098039e+00, -1.416000e+02)
+(  6.500000e+07gHz, -2.615366e+00, -1.486000e+02)
+(  8.500000e+07gHz, -2.158108e+00, -1.532000e+02)
+(  1.050000e+08gHz, -1.723723e+00, -1.569000e+02)
+(  1.250000e+08gHz, -1.411621e+00, -1.601000e+02)
+(  1.450000e+08gHz, -1.110347e+00, -1.628000e+02)
+(  1.650000e+08gHz, -9.151498e-01, -1.652000e+02)
+(  1.850000e+08gHz, -8.191722e-01, -1.674000e+02)
+(  2.050000e+08gHz, -6.303410e-01, -1.694000e+02)
+(  2.250000e+08gHz, -6.303410e-01, -1.713000e+02)
+(  2.450000e+08gHz, -5.374429e-01, -1.729000e+02)
+(  2.650000e+08gHz, -4.455279e-01, -1.744000e+02)
+(  2.850000e+08gHz, -3.545753e-01, -1.758000e+02)
+(  3.050000e+08gHz, -3.545753e-01, -1.771000e+02)
+(  3.250000e+08gHz, -3.545753e-01, -1.784000e+02)
+(  3.450000e+08gHz, -2.645653e-01, -1.796000e+02)
+(  3.650000e+08gHz, -2.645653e-01, -1.807000e+02)
+(  3.850000e+08gHz, -2.645653e-01, -1.818000e+02)
+(  4.050000e+08gHz, -2.645653e-01, -1.828000e+02)
+(  4.250000e+08gHz, -2.645653e-01, -1.838000e+02)
+(  4.450000e+08gHz, -2.645653e-01, -1.848000e+02)
+(  4.650000e+08gHz, -1.754785e-01, -1.858000e+02)
+(  4.850000e+08gHz, -1.754785e-01, -1.867000e+02)
+(  5.050000e+08gHz, -1.754785e-01, -1.876000e+02)
+(  5.250000e+08gHz, -1.754785e-01, -1.885000e+02)
+(  5.450000e+08gHz, -1.754785e-01, -1.893000e+02)
+(  5.650000e+08gHz, -1.754785e-01, -1.902000e+02)
+(  5.850000e+08gHz, -1.754785e-01, -1.910000e+02)
+(  6.050000e+08gHz, -1.754785e-01, -1.918000e+02)
+(  6.250000e+08gHz, -2.645653e-01, -1.926000e+02)
+(  6.450000e+08gHz, -2.645653e-01, -1.934000e+02)
+(  6.650000e+08gHz, -2.645653e-01, -1.942000e+02)
+(  6.850000e+08gHz, -2.645653e-01, -1.950000e+02)
+(  7.050000e+08gHz, -2.645653e-01, -1.958000e+02)
+(  7.250000e+08gHz, -2.645653e-01, -1.966000e+02)
+(  7.450000e+08gHz, -2.645653e-01, -1.973000e+02)
+(  7.650000e+08gHz, -2.645653e-01, -1.981000e+02)
+(  7.850000e+08gHz, -2.645653e-01, -1.989000e+02)
+(  8.050000e+08gHz, -2.645653e-01, -1.996000e+02)
+(  8.250000e+08gHz, -2.645653e-01, -2.004000e+02)
+(  8.450000e+08gHz, -2.645653e-01, -2.011000e+02)
+(  8.650000e+08gHz, -3.545753e-01, -2.019000e+02)
+(  8.850000e+08gHz, -3.545753e-01, -2.026000e+02)
+(  9.050000e+08gHz, -4.455279e-01, -2.031000e+02)
+(  9.250000e+08gHz, -5.374429e-01, -2.038000e+02)
+(  9.450000e+08gHz, -7.242435e-01, -2.039000e+02)
+(  9.650000e+08gHz, -5.374429e-01, -2.022000e+02)
+(  9.850000e+08gHz,  1.129332e+01, -3.127000e+02)

*S21 FREQ DB PHASE
E21 21 22 FREQ {V(10,5)}=
+(  5.000000e+06gHz,  1.400000e+02,  8.000000e-01)
+(  2.500000e+07gHz,  1.495424e+02,  6.800000e-01)
+(  4.500000e+07gHz,  1.539794e+02,  7.100000e-01)
+(  6.500000e+07gHz,  1.569020e+02,  7.500000e-01)
+(  8.500000e+07gHz,  1.590849e+02,  7.900000e-01)
+(  1.050000e+08gHz,  1.608279e+02,  8.200000e-01)
+(  1.250000e+08gHz,  1.622789e+02,  8.500000e-01)
+(  1.450000e+08gHz,  1.635218e+02,  8.700000e-01)
+(  1.650000e+08gHz,  1.646090e+02,  9.000000e-01)
+(  1.850000e+08gHz,  1.655751e+02,  9.100000e-01)
+(  2.050000e+08gHz,  1.664444e+02,  9.200000e-01)
+(  2.250000e+08gHz,  1.672346e+02,  9.200000e-01)
+(  2.450000e+08gHz,  1.679588e+02,  9.400000e-01)
+(  2.650000e+08gHz,  1.686273e+02,  9.500000e-01)
+(  2.850000e+08gHz,  1.692480e+02,  9.500000e-01)
+(  3.050000e+08gHz,  1.698272e+02,  9.500000e-01)
+(  3.250000e+08gHz,  1.703703e+02,  9.500000e-01)
+(  3.450000e+08gHz,  1.708814e+02,  9.600000e-01)
+(  3.650000e+08gHz,  1.713640e+02,  9.700000e-01)
+(  3.850000e+08gHz,  1.718213e+02,  9.600000e-01)
+(  4.050000e+08gHz,  1.722557e+02,  9.600000e-01)
+(  4.250000e+08gHz,  1.726694e+02,  9.600000e-01)
+(  4.450000e+08gHz,  1.730643e+02,  9.700000e-01)
+(  4.650000e+08gHz,  1.734420e+02,  9.700000e-01)
+(  4.850000e+08gHz,  1.738039e+02,  9.700000e-01)
+(  5.050000e+08gHz,  1.741514e+02,  9.700000e-01)
+(  5.250000e+08gHz,  1.744855e+02,  9.700000e-01)
+(  5.450000e+08gHz,  1.748073e+02,  9.700000e-01)
+(  5.650000e+08gHz,  1.751175e+02,  9.700000e-01)
+(  5.850000e+08gHz,  1.754170e+02,  9.700000e-01)
+(  6.050000e+08gHz,  1.757066e+02,  9.600000e-01)
+(  6.250000e+08gHz,  1.759868e+02,  9.600000e-01)
+(  6.450000e+08gHz,  1.762583e+02,  9.700000e-01)
+(  6.650000e+08gHz,  1.765215e+02,  9.600000e-01)
+(  6.850000e+08gHz,  1.767770e+02,  9.600000e-01)
+(  7.050000e+08gHz,  1.770252e+02,  9.600000e-01)
+(  7.250000e+08gHz,  1.772665e+02,  9.600000e-01)
+(  7.450000e+08gHz,  1.775012e+02,  9.600000e-01)
+(  7.650000e+08gHz,  1.777298e+02,  9.500000e-01)
+(  7.850000e+08gHz,  1.779525e+02,  9.400000e-01)
+(  8.050000e+08gHz,  1.781697e+02,  9.400000e-01)
+(  8.250000e+08gHz,  1.783816e+02,  9.500000e-01)
+(  8.450000e+08gHz,  1.785884e+02,  9.500000e-01)
+(  8.650000e+08gHz,  1.787904e+02,  9.500000e-01)
+(  8.850000e+08gHz,  1.789878e+02,  9.500000e-01)
+(  9.050000e+08gHz,  1.791808e+02,  9.500000e-01)
+(  9.250000e+08gHz,  1.793697e+02,  9.500000e-01)
+(  9.450000e+08gHz,  1.795545e+02,  9.500000e-01)
+(  9.650000e+08gHz,  1.797354e+02,  9.500000e-01)
+(  9.850000e+08gHz,  1.799127e+02,  9.500000e-01)

*S22 FREQ DB PHASE
E22 22 23 FREQ {V(20,5)}=
+(  5.000000e+06gHz,          -Inf,  1.943000e+01)
+(  2.500000e+07gHz,          -Inf,  8.040000e+00)
+(  4.500000e+07gHz,          -Inf,  4.670000e+00)
+(  6.500000e+07gHz,          -Inf,  3.100000e+00)
+(  8.500000e+07gHz,          -Inf,  2.240000e+00)
+(  1.050000e+08gHz,          -Inf,  1.690000e+00)
+(  1.250000e+08gHz,          -Inf,  1.310000e+00)
+(  1.450000e+08gHz,          -Inf,  1.040000e+00)
+(  1.650000e+08gHz,          -Inf,  8.500000e-01)
+(  1.850000e+08gHz,          -Inf,  7.100000e-01)
+(  2.050000e+08gHz,          -Inf,  6.000000e-01)
+(  2.250000e+08gHz,          -Inf,  5.100000e-01)
+(  2.450000e+08gHz,          -Inf,  4.400000e-01)
+(  2.650000e+08gHz,          -Inf,  3.800000e-01)
+(  2.850000e+08gHz,          -Inf,  3.400000e-01)
+(  3.050000e+08gHz,  4.508129e+01,  3.000000e-01)
+(  3.250000e+08gHz,  4.501815e+01,  2.700000e-01)
+(  3.450000e+08gHz,  4.495456e+01,  2.400000e-01)
+(  3.650000e+08gHz,  4.488059e+01,  2.200000e-01)
+(  3.850000e+08gHz,  4.481598e+01,  2.000000e-01)
+(  4.050000e+08gHz,  4.476092e+01,  1.900000e-01)
+(  4.250000e+08gHz,  4.470552e+01,  1.700000e-01)
+(  4.450000e+08gHz,  4.463958e+01,  1.600000e-01)
+(  4.650000e+08gHz,  4.457314e+01,  1.500000e-01)
+(  4.850000e+08gHz,  4.452168e+01,  1.500000e-01)
+(  5.050000e+08gHz,  4.446992e+01,  1.400000e-01)
+(  5.250000e+08gHz,  4.441262e+01,  1.400000e-01)
+(  5.450000e+08gHz,  4.434441e+01,  1.300000e-01)
+(  5.650000e+08gHz,  4.428628e+01,  1.300000e-01)
+(  5.850000e+08gHz,  4.423309e+01,  1.300000e-01)
+(  6.050000e+08gHz,  4.418494e+01,  1.300000e-01)
+(  6.250000e+08gHz,  4.412572e+01,  1.300000e-01)
+(  6.450000e+08gHz,  4.406066e+01,  1.300000e-01)
+(  6.650000e+08gHz,  4.400606e+01,  1.300000e-01)
+(  6.850000e+08gHz,  4.395663e+01,  1.300000e-01)
+(  7.050000e+08gHz,  4.390138e+01,  1.300000e-01)
+(  7.250000e+08gHz,  4.384019e+01,  1.300000e-01)
+(  7.450000e+08gHz,  4.377295e+01,  1.300000e-01)
+(  7.650000e+08gHz,  4.371651e+01,  1.400000e-01)
+(  7.850000e+08gHz,  4.367678e+01,  1.400000e-01)
+(  8.050000e+08gHz,  4.364258e+01,  1.400000e-01)
+(  8.250000e+08gHz,  4.359678e+01,  1.400000e-01)
+(  8.450000e+08gHz,  4.353340e+01,  1.500000e-01)
+(  8.650000e+08gHz,  4.347538e+01,  1.600000e-01)
+(  8.850000e+08gHz,  4.342282e+01,  1.600000e-01)
+(  9.050000e+08gHz,  4.335816e+01,  1.600000e-01)
+(  9.250000e+08gHz,  4.329300e+01,  1.600000e-01)
+(  9.450000e+08gHz,  4.322137e+01,  1.700000e-01)
+(  9.650000e+08gHz,  4.316122e+01,  1.700000e-01)
+(  9.850000e+08gHz,  4.310064e+01,  2.000000e-01)

*S23 FREQ DB PHASE
E23 23 24 FREQ {V(30,5)}=
+(  5.000000e+06gHz,  4.199361e+01,  5.000000e-02)
+(  2.500000e+07gHz,  3.905585e+01,  6.000000e-02)
+(  4.500000e+07gHz,  3.733756e+01,  6.000000e-02)
+(  6.500000e+07gHz,  3.590369e+01,  5.000000e-02)
+(  8.500000e+07gHz,  3.459949e+01,  4.000000e-02)
+(  1.050000e+08gHz,  3.325516e+01,  3.000000e-02)
+(  1.250000e+08gHz,  3.201946e+01,  3.000000e-02)
+(  1.450000e+08gHz,  3.098007e+01,  2.000000e-02)
+(  1.650000e+08gHz,  3.002119e+01,  2.000000e-02)
+(  1.850000e+08gHz,  2.900498e+01,  1.000000e-02)
+(  2.050000e+08gHz,  2.799347e+01,  1.000000e-02)
+(  2.250000e+08gHz,  2.719671e+01,  1.000000e-02)
+(  2.450000e+08gHz,  2.668908e+01,  2.000000e-02)
+(  2.650000e+08gHz,  2.627734e+01,  2.000000e-02)
+(  2.850000e+08gHz,  2.584512e+01,  3.000000e-02)
+(  3.050000e+08gHz,  2.557507e+01,  3.000000e-02)
+(  3.250000e+08gHz,  2.562067e+01,  4.000000e-02)
+(  3.450000e+08gHz,  2.588932e+01,  4.000000e-02)
+(  3.650000e+08gHz,  2.619260e+01,  5.000000e-02)
+(  3.850000e+08gHz,  2.664877e+01,  5.000000e-02)
+(  4.050000e+08gHz,  2.708217e+01,  6.000000e-02)
+(  4.250000e+08gHz,  2.767631e+01,  6.000000e-02)
+(  4.450000e+08gHz,  2.833281e+01,  6.000000e-02)
+(  4.650000e+08gHz,  2.906637e+01,  7.000000e-02)
+(  4.850000e+08gHz,  2.971443e+01,  7.000000e-02)
+(  5.050000e+08gHz,  3.029096e+01,  8.000000e-02)
+(  5.250000e+08gHz,  3.090614e+01,  8.000000e-02)
+(  5.450000e+08gHz,  3.154984e+01,  9.000000e-02)
+(  5.650000e+08gHz,  3.217052e+01,  9.000000e-02)
+(  5.850000e+08gHz,  3.260856e+01,  9.000000e-02)
+(  6.050000e+08gHz,  3.300615e+01,  1.000000e-01)
+(  6.250000e+08gHz,  3.336772e+01,  1.000000e-01)
+(  6.450000e+08gHz,  3.389210e+01,  1.100000e-01)
+(  6.650000e+08gHz,  3.428660e+01,  1.100000e-01)
+(  6.850000e+08gHz,  3.443621e+01,  1.100000e-01)
+(  7.050000e+08gHz,  3.455083e+01,  1.200000e-01)
+(  7.250000e+08gHz,  3.485450e+01,  1.200000e-01)
+(  7.450000e+08gHz,  3.522352e+01,  1.300000e-01)
+(  7.650000e+08gHz,  3.538755e+01,  1.300000e-01)
+(  7.850000e+08gHz,  3.541704e+01,  1.300000e-01)
+(  8.050000e+08gHz,  3.546109e+01,  1.300000e-01)
+(  8.250000e+08gHz,  3.570660e+01,  1.400000e-01)
+(  8.450000e+08gHz,  3.605547e+01,  1.500000e-01)
+(  8.650000e+08gHz,  3.621809e+01,  1.500000e-01)
+(  8.850000e+08gHz,  3.608279e+01,  1.500000e-01)
+(  9.050000e+08gHz,  3.601434e+01,  1.500000e-01)
+(  9.250000e+08gHz,  3.616422e+01,  1.600000e-01)
+(  9.450000e+08gHz,  3.643027e+01,  1.600000e-01)
+(  9.650000e+08gHz,  3.649553e+01,  1.400000e-01)
+(  9.850000e+08gHz,  3.706179e+01,  1.740000e+00)

*S24 FREQ DB PHASE
E24 24 5 FREQ {V(40,5)}=
+(  5.000000e+06gHz,  3.131696e+01,  8.100000e-01)
+(  2.500000e+07gHz,  1.037028e+01,  6.900000e-01)
+(  4.500000e+07gHz,          -Inf,  7.100000e-01)
+(  6.500000e+07gHz,          -Inf,  7.500000e-01)
+(  8.500000e+07gHz,          -Inf,  7.900000e-01)
+(  1.050000e+08gHz,          -Inf,  8.300000e-01)
+(  1.250000e+08gHz,          -Inf,  8.600000e-01)
+(  1.450000e+08gHz,          -Inf,  8.800000e-01)
+(  1.650000e+08gHz,          -Inf,  9.000000e-01)
+(  1.850000e+08gHz,  1.848559e+01,  9.200000e-01)
+(  2.050000e+08gHz,  3.129332e+01,  9.300000e-01)
+(  2.250000e+08gHz,  3.543175e+01,  9.400000e-01)
+(  2.450000e+08gHz,  3.715871e+01,  9.500000e-01)
+(  2.650000e+08gHz,  3.795254e+01,  9.500000e-01)
+(  2.850000e+08gHz,  3.828686e+01,  9.600000e-01)
+(  3.050000e+08gHz,  3.846488e+01,  9.600000e-01)
+(  3.250000e+08gHz,  3.859859e+01,  9.600000e-01)
+(  3.450000e+08gHz,  3.870006e+01,  9.700000e-01)
+(  3.650000e+08gHz,  3.875036e+01,  9.700000e-01)
+(  3.850000e+08gHz,  3.873027e+01,  9.700000e-01)
+(  4.050000e+08gHz,  3.867986e+01,  9.700000e-01)
+(  4.250000e+08gHz,  3.866975e+01,  9.700000e-01)
+(  4.450000e+08gHz,  3.871015e+01,  9.700000e-01)
+(  4.650000e+08gHz,  3.870006e+01,  9.800000e-01)
+(  4.850000e+08gHz,  3.859859e+01,  9.800000e-01)
+(  5.050000e+08gHz,  3.853713e+01,  9.800000e-01)
+(  5.250000e+08gHz,  3.854741e+01,  9.800000e-01)
+(  5.450000e+08gHz,  3.854741e+01,  9.800000e-01)
+(  5.650000e+08gHz,  3.847524e+01,  9.800000e-01)
+(  5.850000e+08gHz,  3.836061e+01,  9.800000e-01)
+(  6.050000e+08gHz,  3.831854e+01,  9.800000e-01)
+(  6.250000e+08gHz,  3.837109e+01,  9.700000e-01)
+(  6.450000e+08gHz,  3.837109e+01,  9.700000e-01)
+(  6.650000e+08gHz,  3.821249e+01,  9.700000e-01)
+(  6.850000e+08gHz,  3.807265e+01,  9.700000e-01)
+(  7.050000e+08gHz,  3.810512e+01,  9.700000e-01)
+(  7.250000e+08gHz,  3.820181e+01,  9.700000e-01)
+(  7.450000e+08gHz,  3.812670e+01,  9.700000e-01)
+(  7.650000e+08gHz,  3.793052e+01,  9.700000e-01)
+(  7.850000e+08gHz,  3.780842e+01,  9.700000e-01)
+(  8.050000e+08gHz,  3.789739e+01,  9.700000e-01)
+(  8.250000e+08gHz,  3.807265e+01,  9.700000e-01)
+(  8.450000e+08gHz,  3.804006e+01,  9.700000e-01)
+(  8.650000e+08gHz,  3.778603e+01,  9.600000e-01)
+(  8.850000e+08gHz,  3.759338e+01,  9.600000e-01)
+(  9.050000e+08gHz,  3.747803e+01,  9.500000e-01)
+(  9.250000e+08gHz,  3.766187e+01,  9.400000e-01)
+(  9.450000e+08gHz,  3.739636e+01,  9.300000e-01)
+(  9.650000e+08gHz,  3.692674e+01,  9.100000e-01)
+(  9.850000e+08gHz,  3.227684e+01,  3.620000e+00)

*S31 FREQ DB PHASE
E31 31 32 FREQ {V(10,5)}=
+(  5.000000e+06gHz,          -Inf,  1.499964e+07)
+(  2.500000e+07gHz,          -Inf,  3.499928e+07)
+(  4.500000e+07gHz,          -Inf,  5.499892e+07)
+(  6.500000e+07gHz,          -Inf,  7.499856e+07)
+(  8.500000e+07gHz,          -Inf,  9.499820e+07)
+(  1.050000e+08gHz,          -Inf,  1.149978e+08)
+(  1.250000e+08gHz,          -Inf,  1.349975e+08)
+(  1.450000e+08gHz,          -Inf,  1.549971e+08)
+(  1.650000e+08gHz,          -Inf,  1.749968e+08)
+(  1.850000e+08gHz,          -Inf,  1.949964e+08)
+(  2.050000e+08gHz,          -Inf,  2.149960e+08)
+(  2.250000e+08gHz,          -Inf,  2.349957e+08)
+(  2.450000e+08gHz,          -Inf,  2.549953e+08)
+(  2.650000e+08gHz,          -Inf,  2.749950e+08)
+(  2.850000e+08gHz,          -Inf,  2.949946e+08)
+(  3.050000e+08gHz,          -Inf,  3.149942e+08)
+(  3.250000e+08gHz,          -Inf,  3.349939e+08)
+(  3.450000e+08gHz,          -Inf,  3.549935e+08)
+(  3.650000e+08gHz,  4.506191e+01,  3.749932e+08)
+(  3.850000e+08gHz,  4.500840e+01,  3.949928e+08)
+(  4.050000e+08gHz,  4.495456e+01,  4.149924e+08)
+(  4.250000e+08gHz,  4.490532e+01,  4.349921e+08)
+(  4.450000e+08gHz,  4.485580e+01,  4.549917e+08)
+(  4.650000e+08gHz,  4.481098e+01,  4.749914e+08)
+(  4.850000e+08gHz,  4.476594e+01,  4.949910e+08)
+(  5.050000e+08gHz,  4.472066e+01,  5.149906e+08)
+(  5.250000e+08gHz,  4.467515e+01,  5.349903e+08)
+(  5.450000e+08gHz,  4.463449e+01,  5.549899e+08)
+(  5.650000e+08gHz,  4.458852e+01,  5.749896e+08)
+(  5.850000e+08gHz,  4.454745e+01,  5.949892e+08)
+(  6.050000e+08gHz,  4.450619e+01,  6.149888e+08)
+(  6.250000e+08gHz,  4.446473e+01,  6.349885e+08)
+(  6.450000e+08gHz,  4.442307e+01,  6.549881e+08)
+(  6.650000e+08gHz,  4.438121e+01,  6.749878e+08)
+(  6.850000e+08gHz,  4.433914e+01,  6.949874e+08)
+(  7.050000e+08gHz,  4.429688e+01,  7.149870e+08)
+(  7.250000e+08gHz,  4.425440e+01,  7.349867e+08)
+(  7.450000e+08gHz,  4.421707e+01,  7.549863e+08)
+(  7.650000e+08gHz,  4.417420e+01,  7.749860e+08)
+(  7.850000e+08gHz,  4.413652e+01,  7.949856e+08)
+(  8.050000e+08gHz,  4.409325e+01,  8.149852e+08)
+(  8.250000e+08gHz,  4.404977e+01,  8.349849e+08)
+(  8.450000e+08gHz,  4.401154e+01,  8.549845e+08)
+(  8.650000e+08gHz,  4.396764e+01,  8.749842e+08)
+(  8.850000e+08gHz,  4.393457e+01,  8.949838e+08)
+(  9.050000e+08gHz,  4.390692e+01,  9.149834e+08)
+(  9.250000e+08gHz,  4.386249e+01,  9.349831e+08)
+(  9.450000e+08gHz,  4.384577e+01,  9.549827e+08)
+(  9.650000e+08gHz,  4.403886e+01,  9.749824e+08)
+(  9.850000e+08gHz,  3.340492e+01,  9.949820e+08)

*S32 FREQ DB PHASE
E32 32 33 FREQ {V(20,5)}=
+(  5.000000e+06gHz, -2.615366e+00, -1.028000e+02)
+(  2.500000e+07gHz, -3.223018e+00, -1.369000e+02)
+(  4.500000e+07gHz, -2.853350e+00, -1.471000e+02)
+(  6.500000e+07gHz, -2.383728e+00, -1.521000e+02)
+(  8.500000e+07gHz, -1.938200e+00, -1.562000e+02)
+(  1.050000e+08gHz, -1.618438e+00, -1.603000e+02)
+(  1.250000e+08gHz, -1.411621e+00, -1.633000e+02)
+(  1.450000e+08gHz, -1.110347e+00, -1.655000e+02)
+(  1.650000e+08gHz, -8.191722e-01, -1.679000e+02)
+(  1.850000e+08gHz, -7.242435e-01, -1.704000e+02)
+(  2.050000e+08gHz, -7.242435e-01, -1.726000e+02)
+(  2.250000e+08gHz, -6.303410e-01, -1.743000e+02)
+(  2.450000e+08gHz, -5.374429e-01, -1.759000e+02)
+(  2.650000e+08gHz, -4.455279e-01, -1.777000e+02)
+(  2.850000e+08gHz, -4.455279e-01, -1.794000e+02)
+(  3.050000e+08gHz, -4.455279e-01, -1.808000e+02)
+(  3.250000e+08gHz, -3.545753e-01, -1.821000e+02)
+(  3.450000e+08gHz, -3.545753e-01, -1.835000e+02)
+(  3.650000e+08gHz, -2.645653e-01, -1.850000e+02)
+(  3.850000e+08gHz, -3.545753e-01, -1.862000e+02)
+(  4.050000e+08gHz, -3.545753e-01, -1.873000e+02)
+(  4.250000e+08gHz, -2.645653e-01, -1.884000e+02)
+(  4.450000e+08gHz, -2.645653e-01, -1.897000e+02)
+(  4.650000e+08gHz, -2.645653e-01, -1.910000e+02)
+(  4.850000e+08gHz, -2.645653e-01, -1.920000e+02)
+(  5.050000e+08gHz, -2.645653e-01, -1.930000e+02)
+(  5.250000e+08gHz, -2.645653e-01, -1.941000e+02)
+(  5.450000e+08gHz, -2.645653e-01, -1.954000e+02)
+(  5.650000e+08gHz, -2.645653e-01, -1.964000e+02)
+(  5.850000e+08gHz, -3.545753e-01, -1.974000e+02)
+(  6.050000e+08gHz, -3.545753e-01, -1.984000e+02)
+(  6.250000e+08gHz, -2.645653e-01, -1.995000e+02)
+(  6.450000e+08gHz, -2.645653e-01, -2.007000e+02)
+(  6.650000e+08gHz, -3.545753e-01, -2.016000e+02)
+(  6.850000e+08gHz, -3.545753e-01, -2.026000e+02)
+(  7.050000e+08gHz, -3.545753e-01, -2.036000e+02)
+(  7.250000e+08gHz, -3.545753e-01, -2.048000e+02)
+(  7.450000e+08gHz, -4.455279e-01, -2.059000e+02)
+(  7.650000e+08gHz, -4.455279e-01, -2.068000e+02)
+(  7.850000e+08gHz, -5.374429e-01, -2.074000e+02)
+(  8.050000e+08gHz, -5.374429e-01, -2.080000e+02)
+(  8.250000e+08gHz, -4.455279e-01, -2.090000e+02)
+(  8.450000e+08gHz, -4.455279e-01, -2.101000e+02)
+(  8.650000e+08gHz, -4.455279e-01, -2.110000e+02)
+(  8.850000e+08gHz, -4.455279e-01, -2.120000e+02)
+(  9.050000e+08gHz, -4.455279e-01, -2.130000e+02)
+(  9.250000e+08gHz, -4.455279e-01, -2.143000e+02)
+(  9.450000e+08gHz, -4.455279e-01, -2.153000e+02)
+(  9.650000e+08gHz, -4.455279e-01, -2.163000e+02)
+(  9.850000e+08gHz, -4.455279e-01, -2.172000e+02)

*S33 FREQ DB PHASE
E33 33 34 FREQ {V(30,5)}=
+(  5.000000e+06gHz,  2.346373e+01,  1.120000e+02)
+(  2.500000e+07gHz,  1.673913e+01,  8.490000e+01)
+(  4.500000e+07gHz,  1.240272e+01,  7.040000e+01)
+(  6.500000e+07gHz,  9.066367e+00,  6.010000e+01)
+(  8.500000e+07gHz,  6.361267e+00,  5.170000e+01)
+(  1.050000e+08gHz,  3.973142e+00,  4.430000e+01)
+(  1.250000e+08gHz,  1.798102e+00,  3.870000e+01)
+(  1.450000e+08gHz, -8.729611e-02,  3.440000e+01)
+(  1.650000e+08gHz, -1.830300e+00,  3.080000e+01)
+(  1.850000e+08gHz, -3.349822e+00,  2.740000e+01)
+(  2.050000e+08gHz, -4.882503e+00,  2.450000e+01)
+(  2.250000e+08gHz, -6.196078e+00,  2.250000e+01)
+(  2.450000e+08gHz, -7.535014e+00,  2.140000e+01)
+(  2.650000e+08gHz, -8.635966e+00,  2.040000e+01)
+(  2.850000e+08gHz, -9.629721e+00,  1.940000e+01)
+(  3.050000e+08gHz, -1.075204e+01,  1.890000e+01)
+(  3.250000e+08gHz, -1.170053e+01,  1.920000e+01)
+(  3.450000e+08gHz, -1.239578e+01,  1.980000e+01)
+(  3.650000e+08gHz, -1.315155e+01,  2.060000e+01)
+(  3.850000e+08gHz, -1.397940e+01,  2.170000e+01)
+(  4.050000e+08gHz, -1.489455e+01,  2.300000e+01)
+(  4.250000e+08gHz, -1.539102e+01,  2.460000e+01)
+(  4.450000e+08gHz, -1.591760e+01,  2.660000e+01)
+(  4.650000e+08gHz, -1.647817e+01,  2.890000e+01)
+(  4.850000e+08gHz, -1.647817e+01,  3.110000e+01)
+(  5.050000e+08gHz, -1.707744e+01,  3.330000e+01)
+(  5.250000e+08gHz, -1.707744e+01,  3.580000e+01)
+(  5.450000e+08gHz, -1.772113e+01,  3.830000e+01)
+(  5.650000e+08gHz, -1.772113e+01,  4.090000e+01)
+(  5.850000e+08gHz, -1.772113e+01,  4.310000e+01)
+(  6.050000e+08gHz, -1.772113e+01,  4.490000e+01)
+(  6.250000e+08gHz, -1.772113e+01,  4.730000e+01)
+(  6.450000e+08gHz, -1.772113e+01,  5.010000e+01)
+(  6.650000e+08gHz, -1.772113e+01,  5.210000e+01)
+(  6.850000e+08gHz, -1.772113e+01,  5.280000e+01)
+(  7.050000e+08gHz, -1.772113e+01,  5.390000e+01)
+(  7.250000e+08gHz, -1.772113e+01,  5.590000e+01)
+(  7.450000e+08gHz, -1.707744e+01,  5.800000e+01)
+(  7.650000e+08gHz, -1.707744e+01,  5.900000e+01)
+(  7.850000e+08gHz, -1.707744e+01,  5.890000e+01)
+(  8.050000e+08gHz, -1.707744e+01,  5.960000e+01)
+(  8.250000e+08gHz, -1.707744e+01,  6.160000e+01)
+(  8.450000e+08gHz, -1.647817e+01,  6.410000e+01)
+(  8.650000e+08gHz, -1.591760e+01,  6.460000e+01)
+(  8.850000e+08gHz, -1.591760e+01,  6.340000e+01)
+(  9.050000e+08gHz, -1.591760e+01,  6.330000e+01)
+(  9.250000e+08gHz, -1.591760e+01,  6.480000e+01)
+(  9.450000e+08gHz, -1.539102e+01,  6.660000e+01)
+(  9.650000e+08gHz, -1.489455e+01,  6.650000e+01)
+(  9.850000e+08gHz, -1.442493e+01,  6.950000e+01)

*S34 FREQ DB PHASE
E34 34 5 FREQ {V(40,5)}=
+(  5.000000e+06gHz, -2.443697e+01,  2.350000e+01)
+(  2.500000e+07gHz, -2.443697e+01, -9.000000e-01)
+(  4.500000e+07gHz, -2.602060e+01, -1.260000e+01)
+(  6.500000e+07gHz, -2.602060e+01, -1.990000e+01)
+(  8.500000e+07gHz, -2.795880e+01, -2.490000e+01)
+(  1.050000e+08gHz, -3.045757e+01, -2.780000e+01)
+(  1.250000e+08gHz, -3.045757e+01, -2.700000e+01)
+(  1.450000e+08gHz, -3.397940e+01, -2.120000e+01)
+(  1.650000e+08gHz, -4.000000e+01, -8.400000e+00)
+(  1.850000e+08gHz, -4.000000e+01,  1.520000e+01)
+(  2.050000e+08gHz, -4.000000e+01,  4.330000e+01)
+(  2.250000e+08gHz, -4.000000e+01,  6.320000e+01)
+(  2.450000e+08gHz, -3.397940e+01,  7.430000e+01)
+(  2.650000e+08gHz, -3.397940e+01,  8.000000e+01)
+(  2.850000e+08gHz, -3.045757e+01,  8.260000e+01)
+(  3.050000e+08gHz, -3.045757e+01,  8.410000e+01)
+(  3.250000e+08gHz, -2.795880e+01,  8.540000e+01)
+(  3.450000e+08gHz, -2.795880e+01,  8.630000e+01)
+(  3.650000e+08gHz, -2.602060e+01,  8.660000e+01)
+(  3.850000e+08gHz, -2.602060e+01,  8.620000e+01)
+(  4.050000e+08gHz, -2.443697e+01,  8.580000e+01)