.SUBCKT BLF245_28V_50MA 1 2 3 4 5 
* Filename:       BLF245_28V_50mA.s2p            
* Philips part #: BLF245                                                              !date: 22-05-2003
*Vdd=28V ; Idq=50 mA
*
*
*
*
*
*D:\Vee measurements\measurement data\VDMOST\BLF245\28V_50mA_#1
* HZ S MA R 
* Z1=50.000000 Z2=50.000000 Z3=50.000000 Z4=50.000000

R1N 1 10 -5.000000e+01
R1P 10 11 1.000000e+02
R2N 2 20 -5.000000e+01
R2P 20 21 1.000000e+02
R3N 3 30 -5.000000e+01
R3P 30 31 1.000000e+02
R4N 4 40 -5.000000e+01
R4P 40 41 1.000000e+02

*S11 FREQ DB PHASE
E11 11 12 FREQ {V(10,5)}=
+(  5.000000e+06gHz, -4.455279e-01, -4.050000e+01)
+(  2.500000e+07gHz, -2.498775e+00, -1.192000e+02)
+(  4.500000e+07gHz, -2.733543e+00, -1.402000e+02)
+(  6.500000e+07gHz, -2.383728e+00, -1.487000e+02)
+(  8.500000e+07gHz, -2.047458e+00, -1.534000e+02)
+(  1.050000e+08gHz, -1.723723e+00, -1.578000e+02)
+(  1.250000e+08gHz, -1.514414e+00, -1.615000e+02)
+(  1.450000e+08gHz, -1.310031e+00, -1.640000e+02)
+(  1.650000e+08gHz, -1.012200e+00, -1.661000e+02)
+(  1.850000e+08gHz, -8.191722e-01, -1.686000e+02)
+(  2.050000e+08gHz, -8.191722e-01, -1.710000e+02)
+(  2.250000e+08gHz, -7.242435e-01, -1.730000e+02)
+(  2.450000e+08gHz, -6.303410e-01, -1.746000e+02)
+(  2.650000e+08gHz, -5.374429e-01, -1.763000e+02)
+(  2.850000e+08gHz, -4.455279e-01, -1.781000e+02)
+(  3.050000e+08gHz, -4.455279e-01, -1.796000e+02)
+(  3.250000e+08gHz, -4.455279e-01, -1.810000e+02)
+(  3.450000e+08gHz, -3.545753e-01, -1.823000e+02)
+(  3.650000e+08gHz, -3.545753e-01, -1.838000e+02)
+(  3.850000e+08gHz, -3.545753e-01, -1.852000e+02)
+(  4.050000e+08gHz, -3.545753e-01, -1.863000e+02)
+(  4.250000e+08gHz, -3.545753e-01, -1.874000e+02)
+(  4.450000e+08gHz, -2.645653e-01, -1.887000e+02)
+(  4.650000e+08gHz, -2.645653e-01, -1.900000e+02)
+(  4.850000e+08gHz, -2.645653e-01, -1.912000e+02)
+(  5.050000e+08gHz, -3.545753e-01, -1.921000e+02)
+(  5.250000e+08gHz, -2.645653e-01, -1.932000e+02)
+(  5.450000e+08gHz, -2.645653e-01, -1.944000e+02)
+(  5.650000e+08gHz, -2.645653e-01, -1.956000e+02)
+(  5.850000e+08gHz, -3.545753e-01, -1.966000e+02)
+(  6.050000e+08gHz, -3.545753e-01, -1.975000e+02)
+(  6.250000e+08gHz, -3.545753e-01, -1.986000e+02)
+(  6.450000e+08gHz, -3.545753e-01, -1.998000e+02)
+(  6.650000e+08gHz, -3.545753e-01, -2.009000e+02)
+(  6.850000e+08gHz, -3.545753e-01, -2.018000e+02)
+(  7.050000e+08gHz, -3.545753e-01, -2.028000e+02)
+(  7.250000e+08gHz, -3.545753e-01, -2.039000e+02)
+(  7.450000e+08gHz, -3.545753e-01, -2.050000e+02)
+(  7.650000e+08gHz, -4.455279e-01, -2.061000e+02)
+(  7.850000e+08gHz, -4.455279e-01, -2.070000e+02)
+(  8.050000e+08gHz, -5.374429e-01, -2.078000e+02)
+(  8.250000e+08gHz, -5.374429e-01, -2.085000e+02)
+(  8.450000e+08gHz, -5.374429e-01, -2.093000e+02)
+(  8.650000e+08gHz, -4.455279e-01, -2.103000e+02)
+(  8.850000e+08gHz, -4.455279e-01, -2.112000e+02)
+(  9.050000e+08gHz, -4.455279e-01, -2.122000e+02)
+(  9.250000e+08gHz, -4.455279e-01, -2.133000e+02)
+(  9.450000e+08gHz, -4.455279e-01, -2.146000e+02)
+(  9.650000e+08gHz, -4.455279e-01, -2.156000e+02)
+(  9.850000e+08gHz, -3.545753e-01, -2.165000e+02)

*S12 FREQ DB PHASE
E12 12 13 FREQ {V(20,5)}=
+(  5.000000e+06gHz,  2.889338e+01,  1.529000e+02)
+(  2.500000e+07gHz,  2.175563e+01,  1.014000e+02)
+(  4.500000e+07gHz,  1.678956e+01,  8.230000e+01)
+(  6.500000e+07gHz,  1.317930e+01,  7.000000e+01)
+(  8.500000e+07gHz,  1.034392e+01,  6.090000e+01)
+(  1.050000e+08gHz,  7.923987e+00,  5.280000e+01)
+(  1.250000e+08gHz,  5.711146e+00,  4.600000e+01)
+(  1.450000e+08gHz,  3.750414e+00,  4.090000e+01)
+(  1.650000e+08gHz,  2.007411e+00,  3.670000e+01)
+(  1.850000e+08gHz,  5.061173e-01,  3.280000e+01)
+(  2.050000e+08gHz, -1.012200e+00,  2.930000e+01)
+(  2.250000e+08gHz, -2.383728e+00,  2.630000e+01)
+(  2.450000e+08gHz, -3.741733e+00,  2.430000e+01)
+(  2.650000e+08gHz, -4.882503e+00,  2.280000e+01)
+(  2.850000e+08gHz, -6.020600e+00,  2.120000e+01)
+(  3.050000e+08gHz, -7.130946e+00,  1.980000e+01)
+(  3.250000e+08gHz, -8.178708e+00,  1.900000e+01)
+(  3.450000e+08gHz, -8.873950e+00,  1.880000e+01)
+(  3.650000e+08gHz, -9.897000e+00,  1.870000e+01)
+(  3.850000e+08gHz, -1.075204e+01,  1.880000e+01)
+(  4.050000e+08gHz, -1.137272e+01,  1.920000e+01)
+(  4.250000e+08gHz, -1.204120e+01,  1.960000e+01)
+(  4.450000e+08gHz, -1.276544e+01,  2.050000e+01)
+(  4.650000e+08gHz, -1.355561e+01,  2.190000e+01)
+(  4.850000e+08gHz, -1.397940e+01,  2.330000e+01)
+(  5.050000e+08gHz, -1.442493e+01,  2.460000e+01)
+(  5.250000e+08gHz, -1.489455e+01,  2.630000e+01)
+(  5.450000e+08gHz, -1.539102e+01,  2.830000e+01)
+(  5.650000e+08gHz, -1.591760e+01,  3.040000e+01)
+(  5.850000e+08gHz, -1.591760e+01,  3.260000e+01)
+(  6.050000e+08gHz, -1.591760e+01,  3.450000e+01)
+(  6.250000e+08gHz, -1.647817e+01,  3.620000e+01)
+(  6.450000e+08gHz, -1.647817e+01,  3.880000e+01)
+(  6.650000e+08gHz, -1.647817e+01,  4.160000e+01)
+(  6.850000e+08gHz, -1.647817e+01,  4.310000e+01)
+(  7.050000e+08gHz, -1.647817e+01,  4.420000e+01)
+(  7.250000e+08gHz, -1.707744e+01,  4.610000e+01)
+(  7.450000e+08gHz, -1.707744e+01,  4.880000e+01)
+(  7.650000e+08gHz, -1.647817e+01,  5.090000e+01)
+(  7.850000e+08gHz, -1.647817e+01,  5.150000e+01)
+(  8.050000e+08gHz, -1.647817e+01,  5.190000e+01)
+(  8.250000e+08gHz, -1.647817e+01,  5.320000e+01)
+(  8.450000e+08gHz, -1.647817e+01,  5.610000e+01)
+(  8.650000e+08gHz, -1.591760e+01,  5.860000e+01)
+(  8.850000e+08gHz, -1.591760e+01,  5.830000e+01)
+(  9.050000e+08gHz, -1.591760e+01,  5.780000e+01)
+(  9.250000e+08gHz, -1.591760e+01,  5.890000e+01)
+(  9.450000e+08gHz, -1.539102e+01,  6.110000e+01)
+(  9.650000e+08gHz, -1.539102e+01,  6.240000e+01)
+(  9.850000e+08gHz, -1.442493e+01,  7.130000e+01)

*S13 FREQ DB PHASE
E13 13 14 FREQ {V(30,5)}=
+(  5.000000e+06gHz, -3.397940e+01,  6.380000e+01)
+(  2.500000e+07gHz, -2.602060e+01,  1.460000e+01)
+(  4.500000e+07gHz, -2.602060e+01, -2.100000e+00)
+(  6.500000e+07gHz, -2.602060e+01, -1.160000e+01)
+(  8.500000e+07gHz, -2.795880e+01, -1.760000e+01)
+(  1.050000e+08gHz, -2.795880e+01, -2.180000e+01)
+(  1.250000e+08gHz, -3.045757e+01, -2.320000e+01)
+(  1.450000e+08gHz, -3.397940e+01, -2.040000e+01)
+(  1.650000e+08gHz, -3.397940e+01, -1.210000e+01)
+(  1.850000e+08gHz, -4.000000e+01,  4.400000e+00)
+(  2.050000e+08gHz, -4.000000e+01,  3.020000e+01)
+(  2.250000e+08gHz, -4.000000e+01,  5.470000e+01)
+(  2.450000e+08gHz, -3.397940e+01,  7.030000e+01)
+(  2.650000e+08gHz, -3.397940e+01,  7.880000e+01)
+(  2.850000e+08gHz, -3.045757e+01,  8.290000e+01)
+(  3.050000e+08gHz, -3.045757e+01,  8.490000e+01)
+(  3.250000e+08gHz, -3.045757e+01,  8.640000e+01)
+(  3.450000e+08gHz, -2.795880e+01,  8.750000e+01)
+(  3.650000e+08gHz, -2.795880e+01,  8.810000e+01)
+(  3.850000e+08gHz, -2.602060e+01,  8.800000e+01)
+(  4.050000e+08gHz, -2.602060e+01,  8.750000e+01)
+(  4.250000e+08gHz, -2.443697e+01,  8.730000e+01)
+(  4.450000e+08gHz, -2.443697e+01,  8.750000e+01)
+(  4.650000e+08gHz, -2.309804e+01,  8.760000e+01)
+(  4.850000e+08gHz, -2.309804e+01,  8.670000e+01)
+(  5.050000e+08gHz, -2.193820e+01,  8.590000e+01)
+(  5.250000e+08gHz, -2.193820e+01,  8.580000e+01)
+(  5.450000e+08gHz, -2.193820e+01,  8.590000e+01)
+(  5.650000e+08gHz, -2.091515e+01,  8.540000e+01)
+(  5.850000e+08gHz, -2.091515e+01,  8.430000e+01)
+(  6.050000e+08gHz, -2.000000e+01,  8.360000e+01)
+(  6.250000e+08gHz, -2.000000e+01,  8.390000e+01)
+(  6.450000e+08gHz, -2.000000e+01,  8.420000e+01)
+(  6.650000e+08gHz, -1.917215e+01,  8.300000e+01)
+(  6.850000e+08gHz, -1.917215e+01,  8.140000e+01)
+(  7.050000e+08gHz, -1.917215e+01,  8.130000e+01)
+(  7.250000e+08gHz, -1.841638e+01,  8.220000e+01)
+(  7.450000e+08gHz, -1.772113e+01,  8.210000e+01)
+(  7.650000e+08gHz, -1.772113e+01,  8.030000e+01)
+(  7.850000e+08gHz, -1.772113e+01,  7.900000e+01)
+(  8.050000e+08gHz, -1.772113e+01,  7.900000e+01)
+(  8.250000e+08gHz, -1.707744e+01,  8.030000e+01)
+(  8.450000e+08gHz, -1.707744e+01,  8.090000e+01)
+(  8.650000e+08gHz, -1.647817e+01,  7.900000e+01)
+(  8.850000e+08gHz, -1.647817e+01,  7.700000e+01)
+(  9.050000e+08gHz, -1.647817e+01,  7.570000e+01)
+(  9.250000e+08gHz, -1.591760e+01,  7.690000e+01)
+(  9.450000e+08gHz, -1.591760e+01,  7.380000e+01)
+(  9.650000e+08gHz, -1.647817e+01,  7.560000e+01)
+(  9.850000e+08gHz,  6.020600e+00,  5.580000e+01)

*S14 FREQ DB PHASE
E14 14 5 FREQ {V(40,5)}=
+(  5.000000e+06gHz, -6.303410e-01, -3.580000e+01)
+(  2.500000e+07gHz, -3.609121e+00, -1.081000e+02)
+(  4.500000e+07gHz, -3.876401e+00, -1.285000e+02)
+(  6.500000e+07gHz, -3.349822e+00, -1.375000e+02)
+(  8.500000e+07gHz, -2.733543e+00, -1.433000e+02)
+(  1.050000e+08gHz, -2.270185e+00, -1.481000e+02)
+(  1.250000e+08gHz, -1.830300e+00, -1.520000e+02)
+(  1.450000e+08gHz, -1.514414e+00, -1.553000e+02)
+(  1.650000e+08gHz, -1.310031e+00, -1.583000e+02)
+(  1.850000e+08gHz, -1.110347e+00, -1.610000e+02)
+(  2.050000e+08gHz, -9.151498e-01, -1.635000e+02)
+(  2.250000e+08gHz, -8.191722e-01, -1.657000e+02)
+(  2.450000e+08gHz, -7.242435e-01, -1.677000e+02)
+(  2.650000e+08gHz, -6.303410e-01, -1.695000e+02)
+(  2.850000e+08gHz, -5.374429e-01, -1.712000e+02)
+(  3.050000e+08gHz, -4.455279e-01, -1.728000e+02)
+(  3.250000e+08gHz, -4.455279e-01, -1.743000e+02)
+(  3.450000e+08gHz, -4.455279e-01, -1.756000e+02)
+(  3.650000e+08gHz, -3.545753e-01, -1.769000e+02)
+(  3.850000e+08gHz, -3.545753e-01, -1.782000e+02)
+(  4.050000e+08gHz, -3.545753e-01, -1.794000e+02)
+(  4.250000e+08gHz, -2.645653e-01, -1.805000e+02)
+(  4.450000e+08gHz, -2.645653e-01, -1.816000e+02)
+(  4.650000e+08gHz, -2.645653e-01, -1.827000e+02)
+(  4.850000e+08gHz, -2.645653e-01, -1.838000e+02)
+(  5.050000e+08gHz, -2.645653e-01, -1.848000e+02)
+(  5.250000e+08gHz, -2.645653e-01, -1.857000e+02)
+(  5.450000e+08gHz, -2.645653e-01, -1.867000e+02)
+(  5.650000e+08gHz, -2.645653e-01, -1.876000e+02)
+(  5.850000e+08gHz, -2.645653e-01, -1.885000e+02)
+(  6.050000e+08gHz, -2.645653e-01, -1.894000e+02)
+(  6.250000e+08gHz, -2.645653e-01, -1.903000e+02)
+(  6.450000e+08gHz, -2.645653e-01, -1.911000e+02)
+(  6.650000e+08gHz, -2.645653e-01, -1.920000e+02)
+(  6.850000e+08gHz, -2.645653e-01, -1.928000e+02)
+(  7.050000e+08gHz, -2.645653e-01, -1.937000e+02)
+(  7.250000e+08gHz, -2.645653e-01, -1.945000e+02)
+(  7.450000e+08gHz, -2.645653e-01, -1.953000e+02)
+(  7.650000e+08gHz, -2.645653e-01, -1.961000e+02)
+(  7.850000e+08gHz, -2.645653e-01, -1.969000e+02)
+(  8.050000e+08gHz, -2.645653e-01, -1.977000e+02)
+(  8.250000e+08gHz, -2.645653e-01, -1.985000e+02)
+(  8.450000e+08gHz, -3.545753e-01, -1.993000e+02)
+(  8.650000e+08gHz, -3.545753e-01, -2.001000e+02)
+(  8.850000e+08gHz, -3.545753e-01, -2.009000e+02)
+(  9.050000e+08gHz, -4.455279e-01, -2.014000e+02)
+(  9.250000e+08gHz, -5.374429e-01, -2.021000e+02)
+(  9.450000e+08gHz, -7.242435e-01, -2.023000e+02)
+(  9.650000e+08gHz, -5.374429e-01, -2.008000e+02)
+(  9.850000e+08gHz,  1.244428e+01, -2.977000e+02)

*S21 FREQ DB PHASE
E21 21 22 FREQ {V(10,5)}=
+(  5.000000e+06gHz,  1.400000e+02,  8.600000e-01)
+(  2.500000e+07gHz,  1.495424e+02,  7.300000e-01)
+(  4.500000e+07gHz,  1.539794e+02,  7.400000e-01)
+(  6.500000e+07gHz,  1.569020e+02,  7.600000e-01)
+(  8.500000e+07gHz,  1.590849e+02,  8.000000e-01)
+(  1.050000e+08gHz,  1.608279e+02,  8.200000e-01)
+(  1.250000e+08gHz,  1.622789e+02,  8.500000e-01)
+(  1.450000e+08gHz,  1.635218e+02,  8.700000e-01)
+(  1.650000e+08gHz,  1.646090e+02,  9.000000e-01)
+(  1.850000e+08gHz,  1.655751e+02,  9.100000e-01)
+(  2.050000e+08gHz,  1.664444e+02,  9.100000e-01)
+(  2.250000e+08gHz,  1.672346e+02,  9.200000e-01)
+(  2.450000e+08gHz,  1.679588e+02,  9.300000e-01)
+(  2.650000e+08gHz,  1.686273e+02,  9.500000e-01)
+(  2.850000e+08gHz,  1.692480e+02,  9.500000e-01)
+(  3.050000e+08gHz,  1.698272e+02,  9.500000e-01)
+(  3.250000e+08gHz,  1.703703e+02,  9.500000e-01)
+(  3.450000e+08gHz,  1.708814e+02,  9.600000e-01)
+(  3.650000e+08gHz,  1.713640e+02,  9.600000e-01)
+(  3.850000e+08gHz,  1.718213e+02,  9.600000e-01)
+(  4.050000e+08gHz,  1.722557e+02,  9.600000e-01)
+(  4.250000e+08gHz,  1.726694e+02,  9.600000e-01)
+(  4.450000e+08gHz,  1.730643e+02,  9.700000e-01)
+(  4.650000e+08gHz,  1.734420e+02,  9.700000e-01)
+(  4.850000e+08gHz,  1.738039e+02,  9.700000e-01)
+(  5.050000e+08gHz,  1.741514e+02,  9.600000e-01)
+(  5.250000e+08gHz,  1.744855e+02,  9.700000e-01)
+(  5.450000e+08gHz,  1.748073e+02,  9.700000e-01)
+(  5.650000e+08gHz,  1.751175e+02,  9.700000e-01)
+(  5.850000e+08gHz,  1.754170e+02,  9.600000e-01)
+(  6.050000e+08gHz,  1.757066e+02,  9.600000e-01)
+(  6.250000e+08gHz,  1.759868e+02,  9.600000e-01)
+(  6.450000e+08gHz,  1.762583e+02,  9.700000e-01)
+(  6.650000e+08gHz,  1.765215e+02,  9.600000e-01)
+(  6.850000e+08gHz,  1.767770e+02,  9.600000e-01)
+(  7.050000e+08gHz,  1.770252e+02,  9.600000e-01)
+(  7.250000e+08gHz,  1.772665e+02,  9.600000e-01)
+(  7.450000e+08gHz,  1.775012e+02,  9.600000e-01)
+(  7.650000e+08gHz,  1.777298e+02,  9.500000e-01)
+(  7.850000e+08gHz,  1.779525e+02,  9.500000e-01)
+(  8.050000e+08gHz,  1.781697e+02,  9.400000e-01)
+(  8.250000e+08gHz,  1.783816e+02,  9.400000e-01)
+(  8.450000e+08gHz,  1.785884e+02,  9.500000e-01)
+(  8.650000e+08gHz,  1.787904e+02,  9.500000e-01)
+(  8.850000e+08gHz,  1.789878e+02,  9.500000e-01)
+(  9.050000e+08gHz,  1.791808e+02,  9.500000e-01)
+(  9.250000e+08gHz,  1.793697e+02,  9.500000e-01)
+(  9.450000e+08gHz,  1.795545e+02,  9.500000e-01)
+(  9.650000e+08gHz,  1.797354e+02,  9.500000e-01)
+(  9.850000e+08gHz,  1.799127e+02,  9.500000e-01)

*S22 FREQ DB PHASE
E22 22 23 FREQ {V(20,5)}=
+(  5.000000e+06gHz,          -Inf,  2.260000e+01)
+(  2.500000e+07gHz,          -Inf,  1.037000e+01)
+(  4.500000e+07gHz,          -Inf,  6.170000e+00)
+(  6.500000e+07gHz,          -Inf,  4.170000e+00)
+(  8.500000e+07gHz,          -Inf,  3.060000e+00)
+(  1.050000e+08gHz,          -Inf,  2.340000e+00)
+(  1.250000e+08gHz,          -Inf,  1.820000e+00)
+(  1.450000e+08gHz,          -Inf,  1.460000e+00)
+(  1.650000e+08gHz,          -Inf,  1.200000e+00)
+(  1.850000e+08gHz,          -Inf,  1.010000e+00)
+(  2.050000e+08gHz,          -Inf,  8.500000e-01)
+(  2.250000e+08gHz,          -Inf,  7.300000e-01)
+(  2.450000e+08gHz,          -Inf,  6.300000e-01)
+(  2.650000e+08gHz,          -Inf,  5.500000e-01)
+(  2.850000e+08gHz,          -Inf,  4.900000e-01)
+(  3.050000e+08gHz,          -Inf,  4.300000e-01)
+(  3.250000e+08gHz,  4.504249e+01,  3.800000e-01)
+(  3.450000e+08gHz,  4.497417e+01,  3.500000e-01)
+(  3.650000e+08gHz,  4.490038e+01,  3.100000e-01)
+(  3.850000e+08gHz,  4.483591e+01,  2.900000e-01)
+(  4.050000e+08gHz,  4.478098e+01,  2.600000e-01)
+(  4.250000e+08gHz,  4.472571e+01,  2.400000e-01)
+(  4.450000e+08gHz,  4.465992e+01,  2.200000e-01)
+(  4.650000e+08gHz,  4.459364e+01,  2.100000e-01)
+(  4.850000e+08gHz,  4.453715e+01,  2.000000e-01)
+(  5.050000e+08gHz,  4.448548e+01,  1.900000e-01)
+(  5.250000e+08gHz,  4.442828e+01,  1.800000e-01)
+(  5.450000e+08gHz,  4.436546e+01,  1.700000e-01)
+(  5.650000e+08gHz,  4.430217e+01,  1.600000e-01)
+(  5.850000e+08gHz,  4.425440e+01,  1.600000e-01)
+(  6.050000e+08gHz,  4.420102e+01,  1.500000e-01)
+(  6.250000e+08gHz,  4.414191e+01,  1.500000e-01)
+(  6.450000e+08gHz,  4.407697e+01,  1.500000e-01)
+(  6.650000e+08gHz,  4.402248e+01,  1.500000e-01)
+(  6.850000e+08gHz,  4.397314e+01,  1.500000e-01)
+(  7.050000e+08gHz,  4.391799e+01,  1.500000e-01)
+(  7.250000e+08gHz,  4.385135e+01,  1.400000e-01)
+(  7.450000e+08gHz,  4.378981e+01,  1.400000e-01)
+(  7.650000e+08gHz,  4.373348e+01,  1.500000e-01)
+(  7.850000e+08gHz,  4.368247e+01,  1.500000e-01)
+(  8.050000e+08gHz,  4.364258e+01,  1.500000e-01)
+(  8.250000e+08gHz,  4.359678e+01,  1.500000e-01)
+(  8.450000e+08gHz,  4.354496e+01,  1.500000e-01)
+(  8.650000e+08gHz,  4.349282e+01,  1.600000e-01)
+(  8.850000e+08gHz,  4.344038e+01,  1.600000e-01)
+(  9.050000e+08gHz,  4.337584e+01,  1.600000e-01)
+(  9.250000e+08gHz,  4.330489e+01,  1.600000e-01)
+(  9.450000e+08gHz,  4.323933e+01,  1.700000e-01)
+(  9.650000e+08gHz,  4.317931e+01,  1.800000e-01)
+(  9.850000e+08gHz,  4.312492e+01,  1.900000e-01)

*S23 FREQ DB PHASE
E23 23 24 FREQ {V(30,5)}=
+(  5.000000e+06gHz,  4.249660e+01,  4.000000e-02)
+(  2.500000e+07gHz,  3.960007e+01,  5.000000e-02)
+(  4.500000e+07gHz,  3.793052e+01,  5.000000e-02)
+(  6.500000e+07gHz,  3.658608e+01,  5.000000e-02)
+(  8.500000e+07gHz,  3.538755e+01,  4.000000e-02)
+(  1.050000e+08gHz,  3.413436e+01,  3.000000e-02)
+(  1.250000e+08gHz,  3.298670e+01,  3.000000e-02)
+(  1.450000e+08gHz,  3.199766e+01,  2.000000e-02)
+(  1.650000e+08gHz,  3.105336e+01,  2.000000e-02)
+(  1.850000e+08gHz,  3.007581e+01,  1.000000e-02)
+(  2.050000e+08gHz,  2.909690e+01,  1.000000e-02)
+(  2.250000e+08gHz,  2.819866e+01,  1.000000e-02)
+(  2.450000e+08gHz,  2.756796e+01,  2.000000e-02)
+(  2.650000e+08gHz,  2.700496e+01,  2.000000e-02)
+(  2.850000e+08gHz,  2.636127e+01,  3.000000e-02)
+(  3.050000e+08gHz,  2.584512e+01,  3.000000e-02)
+(  3.250000e+08gHz,  2.557507e+01,  4.000000e-02)
+(  3.450000e+08gHz,  2.548316e+01,  4.000000e-02)
+(  3.650000e+08gHz,  2.543683e+01,  5.000000e-02)
+(  3.850000e+08gHz,  2.552924e+01,  5.000000e-02)
+(  4.050000e+08gHz,  2.566602e+01,  5.000000e-02)
+(  4.250000e+08gHz,  2.593330e+01,  6.000000e-02)
+(  4.450000e+08gHz,  2.640293e+01,  6.000000e-02)
+(  4.650000e+08gHz,  2.692706e+01,  7.000000e-02)
+(  4.850000e+08gHz,  2.745824e+01,  7.000000e-02)
+(  5.050000e+08gHz,  2.799347e+01,  8.000000e-02)
+(  5.250000e+08gHz,  2.856270e+01,  8.000000e-02)
+(  5.450000e+08gHz,  2.915764e+01,  8.000000e-02)
+(  5.650000e+08gHz,  2.982723e+01,  9.000000e-02)
+(  5.850000e+08gHz,  3.039656e+01,  9.000000e-02)
+(  6.050000e+08gHz,  3.083158e+01,  1.000000e-01)
+(  6.250000e+08gHz,  3.134053e+01,  1.000000e-01)
+(  6.450000e+08gHz,  3.197581e+01,  1.100000e-01)
+(  6.650000e+08gHz,  3.250625e+01,  1.100000e-01)
+(  6.850000e+08gHz,  3.274979e+01,  1.100000e-01)
+(  7.050000e+08gHz,  3.294766e+01,  1.200000e-01)
+(  7.250000e+08gHz,  3.338634e+01,  1.200000e-01)
+(  7.450000e+08gHz,  3.387454e+01,  1.300000e-01)
+(  7.650000e+08gHz,  3.416842e+01,  1.300000e-01)
+(  7.850000e+08gHz,  3.426981e+01,  1.300000e-01)
+(  8.050000e+08gHz,  3.432007e+01,  1.300000e-01)
+(  8.250000e+08gHz,  3.463178e+01,  1.400000e-01)
+(  8.450000e+08gHz,  3.511750e+01,  1.500000e-01)
+(  8.650000e+08gHz,  3.537276e+01,  1.500000e-01)
+(  8.850000e+08gHz,  3.528352e+01,  1.500000e-01)
+(  9.050000e+08gHz,  3.525357e+01,  1.500000e-01)
+(  9.250000e+08gHz,  3.546109e+01,  1.600000e-01)
+(  9.450000e+08gHz,  3.580570e+01,  1.600000e-01)
+(  9.650000e+08gHz,  3.591760e+01,  1.400000e-01)
+(  9.850000e+08gHz,  3.672648e+01,  1.970000e+00)

*S24 FREQ DB PHASE
E24 24 5 FREQ {V(40,5)}=
+(  5.000000e+06gHz,  3.294766e+01,  8.300000e-01)
+(  2.500000e+07gHz,  1.918083e+01,  6.500000e-01)
+(  4.500000e+07gHz,          -Inf,  6.500000e-01)
+(  6.500000e+07gHz,          -Inf,  6.900000e-01)
+(  8.500000e+07gHz,          -Inf,  7.400000e-01)
+(  1.050000e+08gHz,          -Inf,  7.800000e-01)
+(  1.250000e+08gHz,          -Inf,  8.100000e-01)
+(  1.450000e+08gHz,          -Inf,  8.400000e-01)
+(  1.650000e+08gHz,          -Inf,  8.700000e-01)
+(  1.850000e+08gHz,  2.025674e+01,  8.900000e-01)
+(  2.050000e+08gHz,  3.136403e+01,  9.000000e-01)
+(  2.250000e+08gHz,  3.547573e+01,  9.100000e-01)
+(  2.450000e+08gHz,  3.725455e+01,  9.300000e-01)
+(  2.650000e+08gHz,  3.808349e+01,  9.300000e-01)
+(  2.850000e+08gHz,  3.843373e+01,  9.400000e-01)
+(  3.050000e+08gHz,  3.861898e+01,  9.500000e-01)
+(  3.250000e+08gHz,  3.876038e+01,  9.500000e-01)
+(  3.450000e+08gHz,  3.885999e+01,  9.600000e-01)
+(  3.650000e+08gHz,  3.890937e+01,  9.600000e-01)
+(  3.850000e+08gHz,  3.887978e+01,  9.600000e-01)
+(  4.050000e+08gHz,  3.883023e+01,  9.600000e-01)
+(  4.250000e+08gHz,  3.882028e+01,  9.700000e-01)
+(  4.450000e+08gHz,  3.885008e+01,  9.700000e-01)
+(  4.650000e+08gHz,  3.884016e+01,  9.700000e-01)
+(  4.850000e+08gHz,  3.873027e+01,  9.700000e-01)
+(  5.050000e+08gHz,  3.866975e+01,  9.700000e-01)
+(  5.250000e+08gHz,  3.867986e+01,  9.700000e-01)
+(  5.450000e+08gHz,  3.866975e+01,  9.700000e-01)
+(  5.650000e+08gHz,  3.859859e+01,  9.700000e-01)
+(  5.850000e+08gHz,  3.849592e+01,  9.700000e-01)
+(  6.050000e+08gHz,  3.844413e+01,  9.700000e-01)
+(  6.250000e+08gHz,  3.848559e+01,  9.700000e-01)
+(  6.450000e+08gHz,  3.849592e+01,  9.700000e-01)
+(  6.650000e+08gHz,  3.832908e+01,  9.700000e-01)
+(  6.850000e+08gHz,  3.819112e+01,  9.700000e-01)
+(  7.050000e+08gHz,  3.822315e+01,  9.700000e-01)
+(  7.250000e+08gHz,  3.831854e+01,  9.700000e-01)
+(  7.450000e+08gHz,  3.824444e+01,  9.700000e-01)
+(  7.650000e+08gHz,  3.805094e+01,  9.700000e-01)
+(  7.850000e+08gHz,  3.793052e+01,  9.700000e-01)
+(  8.050000e+08gHz,  3.797450e+01,  9.700000e-01)
+(  8.250000e+08gHz,  3.812670e+01,  9.700000e-01)
+(  8.450000e+08gHz,  3.812670e+01,  9.600000e-01)
+(  8.650000e+08gHz,  3.788632e+01,  9.600000e-01)
+(  8.850000e+08gHz,  3.768458e+01,  9.600000e-01)
+(  9.050000e+08gHz,  3.758192e+01,  9.500000e-01)
+(  9.250000e+08gHz,  3.775235e+01,  9.400000e-01)
+(  9.450000e+08gHz,  3.748964e+01,  9.300000e-01)
+(  9.650000e+08gHz,  3.698839e+01,  9.200000e-01)
+(  9.850000e+08gHz,  3.480725e+01,  4.120000e+00)

*S31 FREQ DB PHASE
E31 31 32 FREQ {V(10,5)}=
+(  5.000000e+06gHz,          -Inf,  1.499964e+07)
+(  2.500000e+07gHz,          -Inf,  3.499928e+07)
+(  4.500000e+07gHz,          -Inf,  5.499892e+07)
+(  6.500000e+07gHz,          -Inf,  7.499856e+07)
+(  8.500000e+07gHz,          -Inf,  9.499820e+07)
+(  1.050000e+08gHz,          -Inf,  1.149978e+08)
+(  1.250000e+08gHz,          -Inf,  1.349975e+08)
+(  1.450000e+08gHz,          -Inf,  1.549971e+08)
+(  1.650000e+08gHz,          -Inf,  1.749968e+08)
+(  1.850000e+08gHz,          -Inf,  1.949964e+08)
+(  2.050000e+08gHz,          -Inf,  2.149960e+08)
+(  2.250000e+08gHz,          -Inf,  2.349957e+08)
+(  2.450000e+08gHz,          -Inf,  2.549953e+08)
+(  2.650000e+08gHz,          -Inf,  2.749950e+08)
+(  2.850000e+08gHz,          -Inf,  2.949946e+08)
+(  3.050000e+08gHz,          -Inf,  3.149942e+08)
+(  3.250000e+08gHz,          -Inf,  3.349939e+08)
+(  3.450000e+08gHz,          -Inf,  3.549935e+08)
+(  3.650000e+08gHz,          -Inf,  3.749932e+08)
+(  3.850000e+08gHz,          -Inf,  3.949928e+08)
+(  4.050000e+08gHz,          -Inf,  4.149924e+08)
+(  4.250000e+08gHz,  4.506676e+01,  4.349921e+08)
+(  4.450000e+08gHz,  4.501328e+01,  4.549917e+08)
+(  4.650000e+08gHz,  4.495947e+01,  4.749914e+08)
+(  4.850000e+08gHz,  4.491025e+01,  4.949910e+08)
+(  5.050000e+08gHz,  4.486076e+01,  5.149906e+08)
+(  5.250000e+08gHz,  4.481098e+01,  5.349903e+08)
+(  5.450000e+08gHz,  4.476594e+01,  5.549899e+08)
+(  5.650000e+08gHz,  4.471562e+01,  5.749896e+08)
+(  5.850000e+08gHz,  4.467515e+01,  5.949892e+08)
+(  6.050000e+08gHz,  4.462939e+01,  6.149888e+08)
+(  6.250000e+08gHz,  4.458339e+01,  6.349885e+08)
+(  6.450000e+08gHz,  4.453715e+01,  6.549881e+08)
+(  6.650000e+08gHz,  4.449584e+01,  6.749878e+08)
+(  6.850000e+08gHz,  4.445433e+01,  6.949874e+08)
+(  7.050000e+08gHz,  4.440739e+01,  7.149870e+08)
+(  7.250000e+08gHz,  4.436546e+01,  7.349867e+08)
+(  7.450000e+08gHz,  4.432332e+01,  7.549863e+08)
+(  7.650000e+08gHz,  4.428097e+01,  7.749860e+08)
+(  7.850000e+08gHz,  4.423842e+01,  7.949856e+08)
+(  8.050000e+08gHz,  4.419566e+01,  8.149852e+08)
+(  8.250000e+08gHz,  4.415269e+01,  8.349849e+08)
+(  8.450000e+08gHz,  4.410950e+01,  8.549845e+08)
+(  8.650000e+08gHz,  4.406610e+01,  8.749842e+08)
+(  8.850000e+08gHz,  4.402794e+01,  8.949838e+08)
+(  9.050000e+08gHz,  4.399510e+01,  9.149834e+08)
+(  9.250000e+08gHz,  4.395663e+01,  9.349831e+08)
+(  9.450000e+08gHz,  4.393457e+01,  9.549827e+08)
+(  9.650000e+08gHz,  4.410950e+01,  9.749824e+08)
+(  9.850000e+08gHz,  3.576337e+01,  9.949820e+08)

*S32 FREQ DB PHASE
E32 32 33 FREQ {V(20,5)}=
+(  5.000000e+06gHz, -1.830300e+00, -9.330000e+01)
+(  2.500000e+07gHz, -2.733543e+00, -1.324000e+02)
+(  4.500000e+07gHz, -2.498775e+00, -1.452000e+02)
+(  6.500000e+07gHz, -2.270185e+00, -1.512000e+02)
+(  8.500000e+07gHz, -1.830300e+00, -1.556000e+02)
+(  1.050000e+08gHz, -1.618438e+00, -1.598000e+02)
+(  1.250000e+08gHz, -1.411621e+00, -1.628000e+02)
+(  1.450000e+08gHz, -1.110347e+00, -1.650000e+02)
+(  1.650000e+08gHz, -9.151498e-01, -1.674000e+02)
+(  1.850000e+08gHz, -8.191722e-01, -1.699000e+02)
+(  2.050000e+08gHz, -7.242435e-01, -1.721000e+02)
+(  2.250000e+08gHz, -7.242435e-01, -1.738000e+02)
+(  2.450000e+08gHz, -5.374429e-01, -1.754000e+02)
+(  2.650000e+08gHz, -4.455279e-01, -1.772000e+02)
+(  2.850000e+08gHz, -4.455279e-01, -1.789000e+02)
+(  3.050000e+08gHz, -4.455279e-01, -1.803000e+02)
+(  3.250000e+08gHz, -4.455279e-01, -1.816000e+02)
+(  3.450000e+08gHz, -3.545753e-01, -1.830000e+02)
+(  3.650000e+08gHz, -3.545753e-01, -1.845000e+02)
+(  3.850000e+08gHz, -3.545753e-01, -1.858000e+02)
+(  4.050000e+08gHz, -3.545753e-01, -1.869000e+02)
+(  4.250000e+08gHz, -3.545753e-01, -1.880000e+02)
+(  4.450000e+08gHz, -2.645653e-01, -1.893000e+02)
+(  4.650000e+08gHz, -2.645653e-01, -1.906000e+02)
+(  4.850000e+08gHz, -3.545753e-01, -1.916000e+02)
+(  5.050000e+08gHz, -3.545753e-01, -1.926000e+02)
+(  5.250000e+08gHz, -2.645653e-01, -1.938000e+02)
+(  5.450000e+08gHz, -2.645653e-01, -1.950000e+02)
+(  5.650000e+08gHz, -2.645653e-01, -1.961000e+02)
+(  5.850000e+08gHz, -3.545753e-01, -1.971000e+02)
+(  6.050000e+08gHz, -3.545753e-01, -1.981000e+02)
+(  6.250000e+08gHz, -3.545753e-01, -1.992000e+02)
+(  6.450000e+08gHz, -3.545753e-01, -2.004000e+02)
+(  6.650000e+08gHz, -3.545753e-01, -2.014000e+02)
+(  6.850000e+08gHz, -3.545753e-01, -2.023000e+02)
+(  7.050000e+08gHz, -3.545753e-01, -2.032000e+02)
+(  7.250000e+08gHz, -3.545753e-01, -2.045000e+02)
+(  7.450000e+08gHz, -3.545753e-01, -2.056000e+02)
+(  7.650000e+08gHz, -4.455279e-01, -2.065000e+02)
+(  7.850000e+08gHz, -4.455279e-01, -2.074000e+02)
+(  8.050000e+08gHz, -5.374429e-01, -2.081000e+02)
+(  8.250000e+08gHz, -5.374429e-01, -2.089000e+02)
+(  8.450000e+08gHz, -4.455279e-01, -2.098000e+02)
+(  8.650000e+08gHz, -4.455279e-01, -2.108000e+02)
+(  8.850000e+08gHz, -4.455279e-01, -2.116000e+02)
+(  9.050000e+08gHz, -4.455279e-01, -2.128000e+02)
+(  9.250000e+08gHz, -4.455279e-01, -2.140000e+02)
+(  9.450000e+08gHz, -4.455279e-01, -2.151000e+02)
+(  9.650000e+08gHz, -5.374429e-01, -2.160000e+02)
+(  9.850000e+08gHz, -4.455279e-01, -2.169000e+02)

*S33 FREQ DB PHASE
E33 33 34 FREQ {V(30,5)}=
+(  5.000000e+06gHz,  2.519665e+01,  1.192000e+02)
+(  2.500000e+07gHz,  1.901703e+01,  9.050000e+01)
+(  4.500000e+07gHz,  1.487020e+01,  7.560000e+01)
+(  6.500000e+07gHz,  1.168662e+01,  6.520000e+01)
+(  8.500000e+07gHz,  9.096897e+00,  5.670000e+01)
+(  1.050000e+08gHz,  6.808882e+00,  4.920000e+01)
+(  1.250000e+08gHz,  4.710569e+00,  4.330000e+01)
+(  1.450000e+08gHz,  2.860296e+00,  3.870000e+01)
+(  1.650000e+08gHz,  1.213957e+00,  3.470000e+01)
+(  1.850000e+08gHz, -2.645653e-01,  3.100000e+01)
+(  2.050000e+08gHz, -1.723723e+00,  2.770000e+01)
+(  2.250000e+08gHz, -3.098039e+00,  2.520000e+01)
+(  2.450000e+08gHz, -4.293403e+00,  2.350000e+01)
+(  2.650000e+08gHz, -5.514483e+00,  2.200000e+01)
+(  2.850000e+08gHz, -6.558043e+00,  2.040000e+01)
+(  3.050000e+08gHz, -7.535014e+00,  1.930000e+01)
+(  3.250000e+08gHz, -8.635966e+00,  1.890000e+01)
+(  3.450000e+08gHz, -9.370422e+00,  1.870000e+01)
+(  3.650000e+08gHz, -1.017277e+01,  1.880000e+01)
+(  3.850000e+08gHz, -1.105684e+01,  1.890000e+01)
+(  4.050000e+08gHz, -1.170053e+01,  1.940000e+01)
+(  4.250000e+08gHz, -1.239578e+01,  2.000000e+01)
+(  4.450000e+08gHz, -1.315155e+01,  2.120000e+01)
+(  4.650000e+08gHz, -1.355561e+01,  2.260000e+01)
+(  4.850000e+08gHz, -1.442493e+01,  2.400000e+01)
+(  5.050000e+08gHz, -1.489455e+01,  2.540000e+01)
+(  5.250000e+08gHz, -1.539102e+01,  2.720000e+01)
+(  5.450000e+08gHz, -1.539102e+01,  2.940000e+01)
+(  5.650000e+08gHz, -1.591760e+01,  3.160000e+01)
+(  5.850000e+08gHz, -1.591760e+01,  3.350000e+01)
+(  6.050000e+08gHz, -1.647817e+01,  3.530000e+01)
+(  6.250000e+08gHz, -1.647817e+01,  3.750000e+01)
+(  6.450000e+08gHz, -1.647817e+01,  4.040000e+01)
+(  6.650000e+08gHz, -1.647817e+01,  4.260000e+01)
+(  6.850000e+08gHz, -1.647817e+01,  4.360000e+01)
+(  7.050000e+08gHz, -1.647817e+01,  4.500000e+01)
+(  7.250000e+08gHz, -1.707744e+01,  4.750000e+01)
+(  7.450000e+08gHz, -1.647817e+01,  4.990000e+01)
+(  7.650000e+08gHz, -1.647817e+01,  5.140000e+01)
+(  7.850000e+08gHz, -1.647817e+01,  5.170000e+01)
+(  8.050000e+08gHz, -1.647817e+01,  5.240000e+01)
+(  8.250000e+08gHz, -1.647817e+01,  5.450000e+01)
+(  8.450000e+08gHz, -1.647817e+01,  5.760000e+01)
+(  8.650000e+08gHz, -1.591760e+01,  5.870000e+01)
+(  8.850000e+08gHz, -1.591760e+01,  5.810000e+01)
+(  9.050000e+08gHz, -1.591760e+01,  5.820000e+01)
+(  9.250000e+08gHz, -1.591760e+01,  5.990000e+01)
+(  9.450000e+08gHz, -1.539102e+01,  6.200000e+01)
+(  9.650000e+08gHz, -1.489455e+01,  6.250000e+01)
+(  9.850000e+08gHz, -1.442493e+01,  6.630000e+01)

*S34 FREQ DB PHASE
E34 34 5 FREQ {V(40,5)}=
+(  5.000000e+06gHz, -2.602060e+01,  3.080000e+01)
+(  2.500000e+07gHz, -2.602060e+01,  4.700000e+00)
+(  4.500000e+07gHz, -2.602060e+01, -7.400000e+00)
+(  6.500000e+07gHz, -2.795880e+01, -1.480000e+01)
+(  8.500000e+07gHz, -2.795880e+01, -1.990000e+01)
+(  1.050000e+08gHz, -3.045757e+01, -2.300000e+01)
+(  1.250000e+08gHz, -3.397940e+01, -2.240000e+01)
+(  1.450000e+08gHz, -3.397940e+01, -1.700000e+01)
+(  1.650000e+08gHz, -4.000000e+01, -5.000000e+00)
+(  1.850000e+08gHz, -4.000000e+01,  1.660000e+01)
+(  2.050000e+08gHz, -4.000000e+01,  4.350000e+01)
+(  2.250000e+08gHz, -4.000000e+01,  6.350000e+01)
+(  2.450000e+08gHz, -3.397940e+01,  7.520000e+01)
+(  2.650000e+08gHz, -3.397940e+01,  8.130000e+01)
+(  2.850000e+08gHz, -3.045757e+01,  8.400000e+01)
+(  3.050000e+08gHz, -3.045757e+01,  8.570000e+01)