Version 4
SHEET 1 1012 680
WIRE -304 32 -416 32
WIRE 96 32 64 32
WIRE 304 32 176 32
WIRE -416 48 -416 32
WIRE 224 80 208 80
WIRE 240 80 224 80
WIRE 208 96 208 80
WIRE -304 112 -304 32
WIRE -224 112 -304 112
WIRE -128 112 -160 112
WIRE -96 112 -128 112
WIRE 64 112 64 32
WIRE 64 112 -16 112
WIRE 176 112 64 112
WIRE 304 128 304 32
WIRE 304 128 240 128
WIRE 352 128 304 128
WIRE -416 144 -416 128
WIRE 176 144 160 144
WIRE -304 160 -304 112
WIRE -352 176 -496 176
WIRE 704 176 688 176
WIRE 720 176 704 176
WIRE 800 176 784 176
WIRE 816 176 800 176
WIRE -496 208 -496 176
WIRE 208 208 208 160
WIRE 240 208 208 208
WIRE -352 224 -384 224
WIRE 240 224 240 208
WIRE 688 224 688 176
WIRE 816 224 816 176
WIRE -384 256 -384 224
WIRE 208 272 208 208
WIRE -304 288 -304 240
WIRE -304 288 -432 288
WIRE -256 288 -304 288
WIRE 176 288 160 288
WIRE -432 304 -432 288
WIRE 304 304 240 304
WIRE 352 304 304 304
WIRE -496 320 -496 288
WIRE -256 320 -256 288
WIRE -224 320 -256 320
WIRE -128 320 -160 320
WIRE -96 320 -128 320
WIRE 64 320 -16 320
WIRE 176 320 64 320
WIRE 560 320 560 272
WIRE 688 352 688 304
WIRE 752 352 688 352
WIRE 816 352 816 304
WIRE 816 352 752 352
WIRE 752 368 752 352
WIRE 208 384 208 336
WIRE 240 384 208 384
WIRE 256 384 240 384
WIRE -432 400 -432 384
WIRE 64 416 64 320
WIRE 112 416 64 416
WIRE 304 416 304 304
WIRE 304 416 192 416
WIRE 560 416 560 400
FLAG 752 368 0
FLAG 800 176 12V
FLAG 704 176 6V
FLAG 240 224 0
FLAG 160 144 6V
FLAG 160 288 6V
FLAG 352 128 plus_Buffer
FLAG 352 304 moins_Buffer
FLAG 224 80 12V
FLAG 240 384 12V
FLAG -128 112 IN+
FLAG -128 320 IN-
FLAG -384 256 0
FLAG -496 320 0
FLAG -432 400 0
FLAG -416 144 0
FLAG 560 416 0
FLAG 560 272 Buffer
SYMBOL voltage 816 208 R0
WINDOW 123 0 0 Left 0
WINDOW 39 0 0 Left 0
WINDOW 0 -70 10 Left 0
SYMATTR InstName Vcc12
SYMATTR Value 12
SYMBOL voltage 688 208 R0
WINDOW 123 0 0 Left 0
WINDOW 39 0 0 Left 0
WINDOW 0 -58 11 Left 0
SYMATTR InstName Vcc6
SYMATTR Value 6
SYMBOL res 192 16 R90
WINDOW 0 15 117 VBottom 0
WINDOW 3 -11 -13 VTop 0
SYMATTR InstName R2
SYMATTR Value 350
SYMBOL res 0 96 R90
WINDOW 0 0 56 VBottom 0
WINDOW 3 32 56 VTop 0
SYMATTR InstName R1
SYMATTR Value 250
SYMBOL res 0 304 R90
WINDOW 0 0 56 VBottom 0
WINDOW 3 32 56 VTop 0
SYMATTR InstName R3
SYMATTR Value 250
SYMBOL res 208 400 R90
WINDOW 0 16 119 VBottom 0
WINDOW 3 -11 -5 VTop 0
SYMATTR InstName R4
SYMATTR Value 350
SYMBOL voltage -496 192 M0
WINDOW 123 24 132 Left 0
WINDOW 39 0 0 Left 0
WINDOW 3 60 -65 VRight 0
SYMATTR Value SINE(6 0.5 130k)
SYMATTR InstName V2
SYMBOL cap -160 96 R90
WINDOW 0 0 32 VBottom 0
WINDOW 3 32 32 VTop 0
SYMATTR InstName C1
SYMATTR Value 1µ
SYMBOL cap -160 304 R90
WINDOW 0 0 32 VBottom 0
WINDOW 3 32 32 VTop 0
SYMATTR InstName C2
SYMATTR Value 1µ
SYMBOL e -304 144 R0
SYMATTR InstName E1
SYMATTR Value 1
SYMBOL res -432 32 R0
SYMATTR InstName R5
SYMATTR Value 50
SYMBOL res -448 288 R0
SYMATTR InstName R6
SYMATTR Value 50
SYMBOL bv 560 304 R0
WINDOW 0 -13 60 Left 0
WINDOW 3 19 100 Left 0
SYMATTR InstName B1
SYMATTR Value V=V(plus_buffer,moins_buffer)
SYMBOL Robertugo\\OPAMP5 208 64 R0
SYMATTR InstName U1
SYMATTR SpiceModel LMH6643
SYMBOL Robertugo\\OPAMP5 208 368 M180
SYMATTR InstName U2
SYMATTR SpiceModel LMH6643
TEXT -80 408 Left 0 !.tran 50us
TEXT -280 -40 Left 0 ;Fonctionne le 25 12 2005\nAttention dans un modele le netlist order \ncorrespond au numéro ordre \ndans la déclaration .Subckt !!!!
TEXT 352 0 Left 0 !.wave .\\from_6643_Buffer.wav 8 220500000 V(Buffer) \n; 22050000000 c'est 1s/50us le tou multiplié par 11025\n; de façon à avoir 11025 échantillons par seconde\n; le tout sur 8 bits
