Version 4
SHEET 1 1332 692
WIRE 496 -448 368 -448
WIRE 704 -448 560 -448
WIRE 240 -352 144 -352
WIRE 368 -352 368 -448
WIRE 368 -352 240 -352
WIRE 400 -352 368 -352
WIRE 496 -352 480 -352
WIRE 592 -352 560 -352
WIRE 704 -352 704 -448
WIRE 704 -352 672 -352
WIRE 800 -352 704 -352
WIRE 880 -352 800 -352
WIRE 144 -336 144 -352
WIRE 880 -336 880 -352
WIRE 880 -256 880 -272
WIRE 144 -240 144 -272
WIRE 240 -112 240 -352
WIRE 464 -112 240 -112
WIRE 800 -112 800 -352
WIRE 800 -112 576 -112
WIRE 240 -16 240 -112
WIRE 480 -16 240 -16
WIRE 800 -16 800 -112
WIRE 800 -16 560 -16
FLAG 880 -256 0
FLAG 144 -240 0
FLAG 240 -352 XTAL1
FLAG 800 -352 XTAL2
SYMBOL cap 864 -336 R0
SYMATTR InstName C2
SYMATTR Value 22p
SYMBOL cap 128 -336 R0
SYMATTR InstName C1
SYMATTR Value 22p
SYMBOL res 384 -336 R270
WINDOW 0 32 56 VTop 0
WINDOW 3 0 56 VBottom 0
SYMATTR InstName Rs
SYMATTR Value 200
SYMBOL cap 496 -336 R270
WINDOW 0 32 32 VTop 0
WINDOW 3 0 32 VBottom 0
SYMATTR InstName Cs
SYMATTR Value 4p2
SYMBOL ind 576 -336 R270
WINDOW 0 32 56 VTop 0
WINDOW 3 5 56 VBottom 0
SYMATTR InstName Ls
SYMATTR Value 400µH
SYMBOL cap 496 -432 R270
WINDOW 0 32 32 VTop 0
WINDOW 3 0 32 VBottom 0
SYMATTR InstName Cp
SYMATTR Value 4p
SYMBOL CD4049B 512 -176 R0
SYMATTR InstName U1
SYMATTR SpiceLine VDD=9  SPEED=1.0  TRIPDT=5e-9
SYMBOL res 576 -32 R90
WINDOW 0 0 56 VBottom 0
WINDOW 3 32 56 VTop 0
SYMATTR InstName R2
SYMATTR Value 10Meg
TEXT 376 112 Left 0 !.tran 0 90u 0 0.5n startup
TEXT 352 -536 Left 0 ;Crystal
RECTANGLE Normal 728 -271 339 -509
