Version 4
SHEET 1 880 680
WIRE -144 -112 -240 -112
WIRE -96 -112 -128 -112
WIRE 16 -112 -96 -112
WIRE 80 -112 16 -112
WIRE 128 -112 80 -112
WIRE 224 -112 208 -112
WIRE 16 -96 16 -112
WIRE 80 -96 80 -112
WIRE -304 -80 -480 -80
WIRE -240 -80 -240 -112
WIRE 224 -64 224 -112
WIRE -480 -48 -480 -80
WIRE -304 -48 -304 -80
WIRE -240 -32 -240 -48
WIRE 16 -32 -240 -32
WIRE -240 -16 -240 -32
WIRE 80 -16 80 -32
WIRE 160 -16 80 -16
WIRE 80 0 80 -16
WIRE -480 16 -480 -16
WIRE -368 16 -480 16
WIRE -304 16 -304 -16
WIRE -304 16 -368 16
WIRE -240 32 -240 16
WIRE -144 32 -240 32
WIRE -96 32 -96 -112
WIRE -96 32 -128 32
WIRE 240 32 224 32
WIRE -368 48 -368 16
WIRE 16 80 16 -32
WIRE 80 80 16 80
WIRE 144 80 80 80
WIRE 240 80 240 32
WIRE 240 80 224 80
WIRE -368 96 -368 80
WIRE 16 96 16 80
FLAG 16 96 0
FLAG -368 96 0
SYMBOL MiniSyms4\\Ind- -304 -32 R0
WINDOW 3 -17 8 Center 0
WINDOW 0 -35 -14 Left 0
SYMATTR Value 1
SYMATTR InstName L1
SYMBOL MiniSyms4\\Ind- -240 0 M0
WINDOW 3 -38 17 Center 0
WINDOW 0 -52 -7 Left 0
SYMATTR Value 2m
SYMATTR InstName L2b
SYMBOL MiniSyms4\\Ind- -240 -64 M0
WINDOW 3 -30 6 Center 0
WINDOW 0 -48 -17 Left 0
SYMATTR Value 2m
SYMATTR InstName L2a
SYMBOL MiniSyms4\\diode- -128 -96 R270
WINDOW 3 8 -8 Invisible 0
WINDOW 0 24 -8 VTop 0
SYMATTR Value 1N4001
SYMATTR InstName D1
SYMBOL MiniSyms4\\diode- -128 48 R270
WINDOW 3 8 -8 Invisible 0
WINDOW 0 -20 -5 VTop 0
SYMATTR Value 1N4001
SYMATTR InstName D4
SYMBOL polcap 32 -96 M0
WINDOW 3 37 33 Left 0
SYMATTR Value 470µ
SYMATTR InstName Cf
SYMATTR Description Capacitor
SYMATTR Type cap
SYMATTR SpiceLine V=16 Irms=825m Rser=0.084 MTBF=6000 Lser=0 mfg="United Chemi-Con" pn="LXF16VB471M10X16LL" type="Al electrolytic" ppPkg=1
SYMBOL MiniSyms4\\signal- -480 -32 R0
WINDOW 3 86 29 Center 0
WINDOW 123 0 0 Left 0
WINDOW 39 40 63 Center 0
SYMATTR Value SINE(0 312 50)
SYMATTR InstName Vac
SYMATTR SpiceLine Rser=1
SYMBOL MiniSyms4\\res- -368 64 R0
WINDOW 3 22 14 Center 0
SYMATTR Value 1g
SYMATTR InstName Raisla
SYMBOL pnp2 160 32 M180
SYMATTR InstName Q1
SYMBOL res 224 -128 R90
WINDOW 0 0 56 VBottom 0
WINDOW 3 32 56 VTop 0
SYMATTR InstName Rs
SYMATTR Value 18
SYMBOL LED 64 -96 R0
WINDOW 3 24 72 Invisible 0
SYMATTR InstName D2
SYMATTR Value LXK2-PW14
SYMBOL res 64 -16 R0
SYMATTR InstName R1
SYMATTR Value 1k
SYMBOL res 240 64 R90
WINDOW 0 0 56 VBottom 0
WINDOW 3 32 56 VTop 0
SYMATTR InstName RbatNiCd
SYMATTR Value 22
TEXT -272 -112 VRight 0 !K1 L1 L2a L2b 1
TEXT -492 120 Left 0 !.tran 1
