Version 4
SHEET 1 1484 1012
WIRE -192 -224 -224 -224
WIRE 272 -224 -192 -224
WIRE 736 -224 272 -224
WIRE -112 -144 -128 -144
WIRE -96 -144 -112 -144
WIRE 352 -144 336 -144
WIRE 368 -144 352 -144
WIRE 816 -144 800 -144
WIRE 832 -144 816 -144
WIRE -112 -128 -112 -144
WIRE 352 -128 352 -144
WIRE 816 -128 816 -144
WIRE -160 -96 -224 -96
WIRE -16 -96 -48 -96
WIRE 304 -96 240 -96
WIRE 448 -96 416 -96
WIRE 768 -96 704 -96
WIRE 912 -96 880 -96
WIRE -192 -32 -192 -224
WIRE -160 -32 -192 -32
WIRE 272 -32 272 -224
WIRE 304 -32 272 -32
WIRE 736 -32 736 -224
WIRE 768 -32 736 -32
WIRE -112 16 -112 0
WIRE -112 16 -128 16
WIRE -96 16 -112 16
WIRE 352 16 352 0
WIRE 352 16 336 16
WIRE 368 16 352 16
WIRE 816 16 816 0
WIRE 816 16 800 16
WIRE 832 16 816 16
WIRE -112 32 -128 16
WIRE -112 32 -96 16
WIRE 352 32 336 16
WIRE 352 32 368 16
WIRE 816 32 800 16
WIRE 816 32 832 16
WIRE -112 96 -128 96
WIRE -96 96 -112 96
WIRE 352 96 336 96
WIRE 368 96 352 96
WIRE 816 96 800 96
WIRE 832 96 816 96
WIRE -112 112 -112 96
WIRE 352 112 352 96
WIRE 816 112 816 96
WIRE -160 144 -224 144
WIRE -16 144 -48 144
WIRE 304 144 240 144
WIRE 448 144 416 144
WIRE 768 144 704 144
WIRE 912 144 880 144
WIRE -192 208 -192 -32
WIRE -160 208 -192 208
WIRE 272 208 272 -32
WIRE 304 208 272 208
WIRE 736 208 736 -32
WIRE 768 208 736 208
WIRE -112 256 -112 240
WIRE -112 256 -128 256
WIRE -96 256 -112 256
WIRE 352 256 352 240
WIRE 352 256 336 256
WIRE 368 256 352 256
WIRE 816 256 816 240
WIRE 816 256 800 256
WIRE 832 256 816 256
WIRE -112 272 -128 256
WIRE -112 272 -96 256
WIRE 352 272 336 256
WIRE 352 272 368 256
WIRE 816 272 800 256
WIRE 816 272 832 256
WIRE -112 336 -128 336
WIRE -96 336 -112 336
WIRE 352 336 336 336
WIRE 368 336 352 336
WIRE 816 336 800 336
WIRE 832 336 816 336
WIRE -112 352 -112 336
WIRE 352 352 352 336
WIRE 816 352 816 336
WIRE -160 384 -224 384
WIRE -16 384 -48 384
WIRE 304 384 240 384
WIRE 448 384 416 384
WIRE 768 384 704 384
WIRE 912 384 880 384
WIRE -192 448 -192 208
WIRE -160 448 -192 448
WIRE 272 448 272 208
WIRE 304 448 272 448
WIRE 736 448 736 208
WIRE 768 448 736 448
WIRE -112 496 -112 480
WIRE -112 496 -128 496
WIRE -96 496 -112 496
WIRE 352 496 352 480
WIRE 352 496 336 496
WIRE 368 496 352 496
WIRE 816 496 816 480
WIRE 816 496 800 496
WIRE 832 496 816 496
WIRE -112 512 -128 496
WIRE -112 512 -96 496
WIRE 352 512 336 496
WIRE 352 512 368 496
WIRE 816 512 800 496
WIRE 816 512 832 496
WIRE -112 576 -128 576
WIRE -96 576 -112 576
WIRE 352 576 336 576
WIRE 368 576 352 576
WIRE 816 576 800 576
WIRE 832 576 816 576
WIRE -112 592 -112 576
WIRE 352 592 352 576
WIRE 816 592 816 576
WIRE -160 624 -224 624
WIRE -16 624 -48 624
WIRE 304 624 240 624
WIRE 448 624 416 624
WIRE 768 624 704 624
WIRE 912 624 880 624
WIRE -192 688 -192 448
WIRE -160 688 -192 688
WIRE 272 688 272 448
WIRE 304 688 272 688
WIRE 736 688 736 448
WIRE 768 688 736 688
WIRE -112 736 -112 720
WIRE -112 736 -128 736
WIRE -96 736 -112 736
WIRE 352 736 352 720
WIRE 352 736 336 736
WIRE 368 736 352 736
WIRE 816 736 816 720
WIRE 816 736 800 736
WIRE 832 736 816 736
WIRE -112 752 -128 736
WIRE -112 752 -96 736
WIRE 352 752 336 736
WIRE 352 752 368 736
WIRE 816 752 800 736
WIRE 816 752 832 736
FLAG -112 -144 Vdd
FLAG -112 16 Vss
FLAG -224 -96 A0
IOPIN -224 -96 In
FLAG -16 -96 Y0
IOPIN -16 -96 Out
FLAG -112 96 Vdd
FLAG -112 256 Vss
FLAG -224 144 A1
IOPIN -224 144 In
FLAG -16 144 Y1
IOPIN -16 144 Out
FLAG -112 336 Vdd
FLAG -112 496 Vss
FLAG -224 384 A2
IOPIN -224 384 In
FLAG -16 384 Y2
IOPIN -16 384 Out
FLAG -112 576 Vdd
FLAG -112 736 Vss
FLAG -224 624 A3
IOPIN -224 624 In
FLAG -16 624 Y3
IOPIN -16 624 Out
FLAG -224 -224 CLK
IOPIN -224 -224 In
FLAG 352 -144 Vdd
FLAG 352 16 Vss
FLAG 240 -96 A4
IOPIN 240 -96 In
FLAG 448 -96 Y4
IOPIN 448 -96 Out
FLAG 352 96 Vdd
FLAG 352 256 Vss
FLAG 240 144 A5
IOPIN 240 144 In
FLAG 448 144 Y5
IOPIN 448 144 Out
FLAG 352 336 Vdd
FLAG 352 496 Vss
FLAG 240 384 A6
IOPIN 240 384 In
FLAG 448 384 Y6
IOPIN 448 384 Out
FLAG 352 576 Vdd
FLAG 352 736 Vss
FLAG 240 624 A7
IOPIN 240 624 In
FLAG 448 624 Y7
IOPIN 448 624 Out
FLAG 816 -144 Vdd
FLAG 816 16 Vss
FLAG 704 -96 A8
IOPIN 704 -96 In
FLAG 912 -96 Y8
IOPIN 912 -96 Out
FLAG 816 96 Vdd
FLAG 816 256 Vss
FLAG 704 144 A9
IOPIN 704 144 In
FLAG 912 144 Y9
IOPIN 912 144 Out
FLAG 816 336 Vdd
FLAG 816 496 Vss
FLAG 704 384 A10
IOPIN 704 384 In
FLAG 912 384 Y10
IOPIN 912 384 Out
FLAG 816 576 Vdd
FLAG 816 736 Vss
FLAG 704 624 A11
IOPIN 704 624 In
FLAG 912 624 Y11
IOPIN 912 624 Out
SYMBOL dff -160 0 R0
SYMATTR InstName X1
SYMBOL dff -160 240 R0
SYMATTR InstName X2
SYMBOL dff -160 480 R0
SYMATTR InstName X3
SYMBOL dff -160 720 R0
SYMATTR InstName X4
SYMBOL dff 304 0 R0
SYMATTR InstName X5
SYMBOL dff 304 240 R0
SYMATTR InstName X6
SYMBOL dff 304 480 R0
SYMATTR InstName X7
SYMBOL dff 304 720 R0
SYMATTR InstName X8
SYMBOL dff 768 0 R0
SYMATTR InstName X9
SYMBOL dff 768 240 R0
SYMATTR InstName X10
SYMBOL dff 768 480 R0
SYMATTR InstName X11
SYMBOL dff 768 720 R0
SYMATTR InstName X12
