Version 4
SHEET 1 880 680
WIRE 96 -288 80 -288
WIRE 112 -288 96 -288
WIRE 96 -272 96 -288
WIRE -352 -240 -656 -240
WIRE 16 -240 -352 -240
WIRE -384 -208 -656 -208
WIRE 16 -208 -384 -208
WIRE -416 -176 -656 -176
WIRE 16 -176 -416 -176
WIRE -448 -144 -656 -144
WIRE 16 -144 -448 -144
WIRE -480 -112 -656 -112
WIRE 16 -112 -480 -112
WIRE -512 -80 -656 -80
WIRE 16 -80 -512 -80
WIRE 240 -80 176 -80
WIRE -544 -48 -656 -48
WIRE 16 -48 -544 -48
WIRE 240 -48 176 -48
WIRE -576 -16 -656 -16
WIRE 16 -16 -576 -16
WIRE 240 -16 176 -16
WIRE -240 16 -256 16
WIRE -224 16 -240 16
WIRE 240 16 176 16
WIRE -240 32 -240 16
WIRE 240 48 176 48
WIRE -352 64 -352 -240
WIRE -320 64 -352 64
WIRE 16 64 -160 64
WIRE 240 80 176 80
WIRE -384 96 -384 -208
WIRE -320 96 -384 96
WIRE 16 96 -160 96
WIRE 240 112 176 112
WIRE -416 128 -416 -176
WIRE -320 128 -416 128
WIRE 16 128 -160 128
WIRE 240 144 176 144
WIRE -448 160 -448 -144
WIRE -320 160 -448 160
WIRE 16 160 -160 160
WIRE 240 176 176 176
WIRE -480 192 -480 -112
WIRE -320 192 -480 192
WIRE 16 192 -160 192
WIRE -512 224 -512 -80
WIRE -320 224 -512 224
WIRE 16 224 -160 224
WIRE -544 256 -544 -48
WIRE -320 256 -544 256
WIRE 16 256 -160 256
WIRE -576 288 -576 -16
WIRE -320 288 -576 288
WIRE 16 288 -160 288
WIRE -320 336 -656 336
WIRE 16 352 -16 352
WIRE -16 368 -16 352
WIRE -16 368 -32 368
WIRE 0 368 -16 368
WIRE -240 384 -240 368
WIRE -240 384 -256 384
WIRE -224 384 -240 384
WIRE -16 384 -32 368
WIRE -16 384 0 368
WIRE -240 400 -256 384
WIRE -240 400 -224 384
WIRE 96 400 96 384
WIRE 96 400 80 400
WIRE 112 400 96 400
WIRE 96 416 80 400
WIRE 96 416 112 400
FLAG 96 -288 Vdd
FLAG 96 400 Vss
FLAG 240 176 Y0
IOPIN 240 176 Out
FLAG 240 144 Y1
IOPIN 240 144 Out
FLAG 240 112 Y2
IOPIN 240 112 Out
FLAG 240 80 Y3
IOPIN 240 80 Out
FLAG 240 48 Y4
IOPIN 240 48 Out
FLAG 240 16 Y5
IOPIN 240 16 Out
FLAG 240 -16 Y6
IOPIN 240 -16 Out
FLAG 240 -48 Y7
IOPIN 240 -48 Out
FLAG 240 -80 Y8
IOPIN 240 -80 Out
FLAG -16 368 Vss
FLAG -656 -16 A0
IOPIN -656 -16 In
FLAG -656 -48 A1
IOPIN -656 -48 In
FLAG -656 -80 A2
IOPIN -656 -80 In
FLAG -656 -112 A3
IOPIN -656 -112 In
FLAG -656 -144 A4
IOPIN -656 -144 In
FLAG -656 -176 A5
IOPIN -656 -176 In
FLAG -656 -208 A6
IOPIN -656 -208 In
FLAG -656 -240 A7
IOPIN -656 -240 In
FLAG -656 336 CLK
IOPIN -656 336 In
FLAG -240 384 Vss
FLAG -240 16 Vdd
SYMBOL 8bitreg -320 368 R0
SYMATTR InstName X3
SYMBOL 8bitadder 16 384 R0
SYMATTR InstName X4
