Version 4
SHEET 1 1064 680
WIRE 448 48 432 48
WIRE 464 48 448 48
WIRE 752 48 736 48
WIRE 768 48 752 48
WIRE 448 64 448 48
WIRE 752 64 752 48
WIRE 640 96 640 32
WIRE 672 96 640 96
WIRE 192 112 176 112
WIRE 208 112 192 112
WIRE 192 128 192 112
WIRE 560 160 528 160
WIRE 672 160 560 160
WIRE 112 176 96 176
WIRE 560 192 528 192
WIRE 672 192 560 192
WIRE -48 224 -80 224
WIRE 112 224 -48 224
WIRE 320 224 272 224
WIRE 384 224 320 224
WIRE 560 224 528 224
WIRE 672 224 560 224
WIRE 880 240 848 240
WIRE -80 256 -80 224
WIRE 384 256 320 256
WIRE 560 256 528 256
WIRE 672 256 560 256
WIRE 80 272 48 272
WIRE 112 272 80 272
WIRE 384 288 352 288
WIRE 560 288 528 288
WIRE 672 288 560 288
WIRE 112 304 48 304
WIRE 560 320 528 320
WIRE 672 320 560 320
WIRE 672 352 640 352
WIRE 80 368 80 272
WIRE 320 368 320 256
WIRE 320 368 80 368
WIRE 352 368 352 288
WIRE 448 368 448 352
WIRE 448 368 432 368
WIRE 464 368 448 368
WIRE 448 384 432 368
WIRE 448 384 464 368
WIRE 640 384 640 352
WIRE 672 384 640 384
WIRE 640 432 640 384
WIRE 752 432 752 416
WIRE 752 432 736 432
WIRE 768 432 752 432
WIRE 752 448 736 432
WIRE 752 448 768 432
FLAG -80 -240 0
FLAG -80 -320 Vdd
FLAG 192 112 Vdd
FLAG 64 -240 0
FLAG 64 -320 Vref
FLAG 96 176 Vref
FLAG -272 -64 0
FLAG -272 -144 clk
FLAG 48 272 clk
FLAG -80 336 0
FLAG -48 224 in
FLAG 320 224 mod
FLAG 448 48 Vdd
FLAG 448 368 Vss
FLAG 640 32 Vref
FLAG 752 432 Vss
FLAG 880 240 out
FLAG 560 320 b0
FLAG 560 288 b1
FLAG 560 256 b2
FLAG 560 224 b3
FLAG 560 192 b4
FLAG 560 160 b5
FLAG 192 -240 0
FLAG 192 -320 rst
FLAG 352 368 rst
FLAG 752 48 Vdd
FLAG -240 -240 0
FLAG -240 -320 Vss
FLAG 144 -64 0
FLAG 144 -144 clki
FLAG 48 304 clki
FLAG 640 432 0
SYMBOL modulator 192 208 R0
WINDOW 1 1 -39 VRight 0
WINDOW 0 44 -54 VRight 0
SYMATTR InstName X1
SYMBOL voltage -80 -336 R0
SYMATTR InstName Vdd
SYMATTR Value 5V
SYMBOL voltage 64 -336 R0
SYMATTR InstName Vref
SYMATTR Value 5V
SYMBOL voltage -272 -160 R0
WINDOW 123 0 0 Left 0
WINDOW 39 0 0 Left 0
WINDOW 3 -42 138 Left 0
SYMATTR Value PULSE(0V 5V 10n 0.1n 0.1n 4n 10n)
SYMATTR InstName Vclk
SYMBOL voltage -80 240 R0
WINDOW 0 39 36 Left 0
WINDOW 3 -90 137 Left 0
WINDOW 123 0 0 Left 0
WINDOW 39 0 0 Left 0
SYMATTR InstName Vin
SYMATTR Value SINE(2.5 2.5 50k)
SYMBOL voltage 192 -336 R0
WINDOW 123 0 0 Left 0
WINDOW 39 0 0 Left 0
SYMATTR InstName Vrst
SYMATTR Value PULSE(5V 0V 25n 0.1n 0.1n 10m)
SYMBOL voltage -240 -336 R0
SYMATTR InstName Vss
SYMATTR Value 0V
SYMBOL voltage 144 -160 R0
WINDOW 123 0 0 Left 0
WINDOW 39 0 0 Left 0
WINDOW 3 -31 137 Left 0
SYMATTR Value PULSE(0V 5V 5n 0.1n 0.1n 4n 10n)
SYMATTR InstName Vclki
SYMBOL 8bitdac 672 416 R0
WINDOW 0 75 -288 Left 0
SYMATTR InstName X3
SYMBOL 6bit_acc_dump 464 208 R0
SYMATTR InstName X4
TEXT -144 504 Left 0 !.tran 25u uic
