Version 4
SHEET 1 1064 680
WIRE 752 -112 736 -112
WIRE 768 -112 752 -112
WIRE 752 -96 752 -112
WIRE 448 -80 432 -80
WIRE 464 -80 448 -80
WIRE 448 -64 448 -80
WIRE 640 -64 640 -128
WIRE 672 -64 640 -64
WIRE 640 0 528 0
WIRE 672 0 640 0
WIRE 640 32 528 32
WIRE 672 32 640 32
WIRE 640 64 528 64
WIRE 672 64 640 64
WIRE 880 80 848 80
WIRE 640 96 528 96
WIRE 672 96 640 96
WIRE 192 112 176 112
WIRE 208 112 192 112
WIRE 192 128 192 112
WIRE 640 128 528 128
WIRE 672 128 640 128
WIRE 640 160 528 160
WIRE 672 160 640 160
WIRE 112 176 96 176
WIRE 640 192 528 192
WIRE 672 192 640 192
WIRE -48 224 -80 224
WIRE 112 224 -48 224
WIRE 320 224 272 224
WIRE 384 224 320 224
WIRE 640 224 528 224
WIRE 672 224 640 224
WIRE -80 256 -80 224
WIRE 384 256 320 256
WIRE 80 272 48 272
WIRE 112 272 80 272
WIRE 752 272 752 256
WIRE 752 272 736 272
WIRE 768 272 752 272
WIRE 752 288 736 272
WIRE 752 288 768 272
WIRE 112 304 48 304
WIRE 80 368 80 272
WIRE 320 368 320 256
WIRE 320 368 80 368
WIRE 448 368 448 352
WIRE 448 368 432 368
WIRE 464 368 448 368
WIRE 448 384 432 368
WIRE 448 384 464 368
FLAG -48 -400 0
FLAG -48 -480 Vdd
FLAG 192 112 Vdd
FLAG 96 -400 0
FLAG 96 -480 Vref
FLAG 96 176 Vref
FLAG -208 -224 0
FLAG -208 -304 clk
FLAG 48 272 clk
FLAG -80 336 0
FLAG -48 224 in
FLAG 320 224 mod
FLAG 448 -80 Vdd
FLAG 448 368 Vss
FLAG 640 -128 Vref
FLAG 752 272 Vss
FLAG 880 80 out
FLAG 640 224 b0
FLAG 640 192 b1
FLAG 640 160 b2
FLAG 640 128 b3
FLAG 640 96 b4
FLAG 640 64 b5
FLAG 224 -400 0
FLAG 224 -480 rst
FLAG 752 -112 Vdd
FLAG -208 -400 0
FLAG -208 -480 Vss
FLAG 224 -224 0
FLAG 224 -304 clki
FLAG 48 304 clki
FLAG 640 32 b6
FLAG 640 0 b7
SYMBOL modulator 192 208 R0
WINDOW 1 1 -39 VRight 0
WINDOW 0 44 -54 VRight 0
SYMATTR InstName X1
SYMBOL voltage -48 -496 R0
SYMATTR InstName Vdd
SYMATTR Value 5V
SYMBOL voltage 96 -496 R0
SYMATTR InstName Vref
SYMATTR Value 5V
SYMBOL voltage -208 -320 R0
WINDOW 123 0 0 Left 0
WINDOW 39 0 0 Left 0
WINDOW 3 -42 138 Left 0
SYMATTR Value PULSE(0V 5V 10n 0.1n 0.1n 4n 10n)
SYMATTR InstName Vclk
SYMBOL voltage -80 240 R0
WINDOW 0 39 36 Left 0
WINDOW 3 -90 137 Left 0
WINDOW 123 0 0 Left 0
WINDOW 39 0 0 Left 0
SYMATTR InstName Vin
SYMATTR Value SINE(2.5 2.5 50k)
SYMBOL voltage 224 -496 R0
WINDOW 123 0 0 Left 0
WINDOW 39 0 0 Left 0
SYMATTR InstName Vrst
SYMATTR Value PULSE(5V 0V 25n 0.1n 0.1n 10m)
SYMBOL voltage -208 -496 R0
SYMATTR InstName Vss
SYMATTR Value 0V
SYMBOL voltage 224 -320 R0
WINDOW 123 0 0 Left 0
WINDOW 39 0 0 Left 0
WINDOW 3 -31 137 Left 0
SYMATTR Value PULSE(0V 5V 5n 0.1n 0.1n 4n 10n)
SYMATTR InstName Vclki
SYMBOL 8bitdac 672 256 R0
WINDOW 0 75 -288 Left 0
SYMATTR InstName X3
SYMBOL 5bit_sinc_filter_2nd_order 464 208 R0
SYMATTR InstName X2
TEXT -240 -64 Left 0 !.tran 0 25u 0 .1n uic
