Version 4
SHEET 1 12540 5124
WIRE 9920 3024 9920 2976
WIRE 10048 3024 10048 2976
WIRE 9920 3152 9920 3104
WIRE 9984 3152 9920 3152
WIRE 10048 3152 10048 3104
WIRE 10048 3152 9984 3152
WIRE 9984 3184 9984 3152
WIRE 10480 3200 10480 3168
WIRE 11024 3232 10640 3232
WIRE 11024 3264 11024 3232
WIRE 10000 3280 9936 3280
WIRE 10160 3280 10080 3280
WIRE 10912 3296 10640 3296
WIRE 10912 3312 10912 3296
WIRE 10160 3328 10160 3280
WIRE 10224 3328 10160 3328
WIRE 10288 3328 10224 3328
WIRE 10224 3360 10160 3360
WIRE 10288 3360 10224 3360
WIRE 10688 3360 10640 3360
WIRE 10720 3360 10688 3360
WIRE 10816 3360 10784 3360
WIRE 11024 3376 11024 3344
WIRE 10000 3408 9936 3408
WIRE 10160 3408 10160 3360
WIRE 10160 3408 10080 3408
WIRE 10768 3424 10640 3424
WIRE 10912 3424 10912 3392
WIRE 10768 3456 10768 3424
WIRE 10576 3504 10576 3488
WIRE 10480 3520 10480 3488
WIRE 10768 3584 10768 3536
FLAG 10768 3584 0
FLAG 11024 3376 0
FLAG 10912 3424 0
FLAG 9936 3280 0
FLAG 9936 3408 0
FLAG 10816 3360 0
FLAG 10576 3504 0
FLAG 9984 3184 0
FLAG 9920 2976 Vcc
FLAG 10048 2976 Vee
FLAG 10480 3168 Vcc
FLAG 10480 3520 Vee
FLAG 10224 3328 IN+
FLAG 10224 3360 IN-
FLAG 10688 3360 OUT
SYMBOL voltage 10768 3440 R0
WINDOW 123 0 0 Left 2
WINDOW 39 0 0 Left 2
SYMATTR InstName V3
SYMATTR Value PULSE(0 1.8 2000n 10n 10n 20n 1000n)
SYMBOL voltage 11024 3248 R0
WINDOW 123 0 0 Left 2
WINDOW 39 0 0 Left 2
SYMATTR InstName V4
SYMATTR Value 4.096
SYMBOL voltage 10912 3296 R0
WINDOW 123 0 0 Left 2
WINDOW 39 0 0 Left 2
SYMATTR InstName V5
SYMATTR Value 5
SYMBOL voltage 10096 3280 R90
WINDOW 0 -32 56 VBottom 2
WINDOW 3 32 56 VTop 2
WINDOW 123 0 0 Left 0
WINDOW 39 0 0 Left 0
SYMATTR InstName V1
SYMATTR Value PWL(0 -24 100u 24)
SYMBOL voltage 10096 3408 R90
WINDOW 0 -32 56 VBottom 2
WINDOW 3 32 56 VTop 2
WINDOW 123 74 56 VTop 2
WINDOW 39 53 56 VTop 2
SYMATTR InstName V2
SYMATTR Value PWL(0 24 100u -24)
SYMBOL cap 10784 3344 R90
WINDOW 0 0 32 VBottom 2
WINDOW 3 32 32 VTop 2
SYMATTR InstName C1
SYMATTR Value 10p
SYMBOL voltage 9920 3008 M0
WINDOW 123 0 0 Left 0
WINDOW 39 0 0 Left 0
SYMATTR InstName V6
SYMATTR Value PWL(0 0 0.5u 24)
SYMBOL voltage 10048 3120 M180
WINDOW 0 24 96 Left 2
WINDOW 3 24 16 Left 2
WINDOW 123 0 0 Left 0
WINDOW 39 0 0 Left 0
SYMATTR InstName V7
SYMATTR Value PWL(0 0 0.5u 24)
SYMBOL AD4858 10448 3328 R0
SYMATTR InstName U1
TEXT 10840 3632 Left 2 !.tran 110u
