Version 4
SHEET 1 2016 1328
WIRE -96 -320 -96 -384
WIRE 160 -320 160 -384
WIRE -96 -160 -96 -240
WIRE 32 -160 -96 -160
WIRE 160 -160 160 -240
WIRE 272 -160 160 -160
WIRE -96 -96 -96 -160
WIRE 32 -96 32 -160
WIRE 160 -96 160 -160
WIRE 272 -96 272 -160
WIRE 528 96 464 96
WIRE 816 96 608 96
WIRE -176 224 -512 224
WIRE 576 224 528 224
WIRE 816 224 816 96
WIRE 816 224 656 224
WIRE 864 224 816 224
WIRE 816 240 816 224
WIRE -512 288 -512 224
WIRE 544 352 464 352
WIRE 816 352 816 320
WIRE 816 352 624 352
WIRE -512 432 -512 368
WIRE 816 432 816 352
WIRE 464 464 416 464
WIRE 464 528 464 464
WIRE -16 640 -16 560
WIRE 208 640 208 560
WIRE 464 656 464 608
WIRE -16 800 -16 720
FLAG 208 640 0
FLAG -16 800 0
FLAG -96 -384 0
FLAG 464 656 0
FLAG 160 -384 0
FLAG -512 432 0
FLAG 816 432 0
FLAG -512 224 IN
FLAG 864 224 OUT
SYMBOL voltage -16 736 M180
WINDOW 0 24 96 Left 2
WINDOW 3 24 16 Left 2
WINDOW 123 0 0 Left 0
WINDOW 39 0 0 Left 0
SYMATTR InstName V1
SYMATTR Value 24
SYMBOL voltage -96 -224 M180
WINDOW 0 24 96 Left 2
WINDOW 3 24 16 Left 2
WINDOW 123 0 0 Left 0
WINDOW 39 0 0 Left 0
SYMATTR InstName V2
SYMATTR Value 24
SYMBOL res 448 512 R0
SYMATTR InstName R1
SYMATTR Value 1k
SYMBOL res 144 -224 M180
WINDOW 0 36 76 Left 2
WINDOW 3 36 40 Left 2
SYMATTR InstName R2
SYMATTR Value 1k
SYMBOL res 640 336 R90
WINDOW 0 0 56 VBottom 2
WINDOW 3 32 56 VTop 2
SYMATTR InstName R3
SYMATTR Value 1k
SYMBOL res 624 80 R90
WINDOW 0 0 56 VBottom 2
WINDOW 3 32 56 VTop 2
SYMATTR InstName R4
SYMATTR Value 1k
SYMBOL voltage -512 272 R0
WINDOW 123 0 0 Left 0
WINDOW 39 0 0 Left 0
SYMATTR InstName V4
SYMATTR Value PULSE(1 2 100u 1u 1u 1m)
SYMBOL res 560 208 M90
WINDOW 0 0 56 VBottom 2
WINDOW 3 32 56 VTop 2
SYMATTR InstName R5
SYMATTR Value 10
SYMBOL res 800 224 R0
SYMATTR InstName R6
SYMATTR Value 1k
SYMBOL AD5423 80 224 R0
SYMATTR InstName U1
TEXT 504 -64 Left 2 !.tran 200u
