Version 4
SHEET 1 2844 1336
WIRE 832 -96 528 -96
WIRE 528 -80 528 -96
WIRE 832 -80 832 -96
WIRE 528 16 528 0
WIRE 832 80 832 48
FLAG 528 16 0
FLAG 528 -96 IN
FLAG 832 80 0
SYMBOL voltage 528 -96 R0
WINDOW 123 0 0 Left 0
WINDOW 39 0 0 Left 0
SYMATTR InstName V1
SYMATTR Value 0
SYMBOL References\\AD590 832 -16 R0
SYMATTR InstName U1
TEXT 584 80 Left 2 !.dc V1 0 10 1m\n.temp -55 25 150
