Version 4
SHEET 1 3472 6284
WIRE 272 -336 240 -336
WIRE 384 -336 352 -336
WIRE 384 -320 384 -336
WIRE 240 -272 240 -336
WIRE 80 -224 48 -224
WIRE 512 -224 400 -224
WIRE 560 -224 512 -224
WIRE 16 -128 -112 -128
WIRE 80 -128 16 -128
WIRE 448 -128 400 -128
WIRE 512 -128 448 -128
WIRE 592 -128 512 -128
WIRE -112 -112 -112 -128
WIRE 448 -112 448 -128
WIRE -112 -16 -112 -32
WIRE 80 -16 16 -16
WIRE 448 -16 448 -48
WIRE 448 -16 400 -16
WIRE 48 48 48 -224
WIRE 80 48 48 48
WIRE 512 48 400 48
WIRE 560 48 512 48
WIRE 48 128 48 48
WIRE 144 128 144 112
WIRE 144 128 48 128
WIRE 144 144 144 128
WIRE 240 176 240 112
WIRE 272 176 240 176
WIRE 368 176 352 176
WIRE 16 256 16 -16
WIRE 592 256 592 -128
WIRE 592 256 16 256
FLAG 512 -224 BUFFOUT
FLAG 512 -128 RMSOUT
FLAG 512 48 DBOUT
FLAG 384 -320 0
FLAG 368 176 0
FLAG -112 -16 0
FLAG 16 -128 VIN
FLAG 144 144 0
SYMBOL AD637 240 -80 R0
SYMATTR InstName U1
SYMBOL cap 432 -112 R0
SYMATTR InstName CAV
SYMATTR Value 4µ
SYMBOL voltage 256 -336 R270
WINDOW 0 32 56 VTop 2
WINDOW 3 -32 56 VBottom 2
SYMATTR InstName V1
SYMATTR Value 18
SYMBOL voltage 256 176 R270
WINDOW 0 32 56 VTop 2
WINDOW 3 -32 56 VBottom 2
SYMATTR InstName V2
SYMATTR Value -18
SYMBOL voltage -112 -128 R0
WINDOW 3 -68 -21 Left 2
SYMATTR Value SINE(0 1 1k)
SYMATTR InstName V4
TEXT -160 296 Left 2 !.tran 2
