Version 4
SHEET 1 3904 5180
WIRE -720 112 -736 112
WIRE -624 112 -640 112
WIRE -624 128 -624 112
WIRE -736 176 -736 112
WIRE -736 208 -736 176
WIRE -384 208 -736 208
WIRE -512 224 -1024 224
WIRE -736 240 -736 208
WIRE -384 240 -384 208
WIRE -896 272 -928 272
WIRE -928 288 -928 272
WIRE -528 288 -560 288
WIRE -896 320 -992 320
WIRE -1024 352 -1024 224
WIRE -1024 352 -1216 352
WIRE -944 352 -1024 352
WIRE -896 352 -944 352
WIRE -528 368 -528 288
WIRE -528 368 -560 368
WIRE -464 368 -528 368
WIRE -320 368 -464 368
WIRE -1216 384 -1216 352
WIRE -320 384 -320 368
WIRE -992 400 -992 320
WIRE -896 400 -992 400
WIRE -528 416 -528 368
WIRE -528 416 -560 416
WIRE -512 448 -512 224
WIRE -512 448 -560 448
WIRE -528 464 -560 464
WIRE -1216 480 -1216 464
WIRE -944 480 -1024 480
WIRE -896 480 -944 480
WIRE -448 480 -560 480
WIRE -384 480 -384 320
WIRE -384 480 -448 480
WIRE -320 480 -320 464
WIRE -896 512 -928 512
WIRE -928 528 -928 512
WIRE -992 560 -992 400
WIRE -528 560 -528 464
WIRE -528 560 -992 560
WIRE -704 592 -704 544
WIRE -1024 608 -1024 480
WIRE -704 608 -704 592
WIRE -1024 704 -1024 688
WIRE -704 704 -704 688
FLAG -944 352 MOD
FLAG -944 480 CAR
FLAG -704 704 0
FLAG -624 128 0
FLAG -928 528 0
FLAG -1024 704 0
FLAG -1216 480 0
FLAG -320 480 0
FLAG -736 176 +VS
FLAG -928 288 0
FLAG -464 368 OUT
FLAG -448 480 STATUS
FLAG -704 592 -VS
SYMBOL AD630 -800 272 R0
SYMATTR InstName U1
SYMBOL voltage -1216 368 R0
WINDOW 3 39 66 Left 2
WINDOW 0 12 11 Left 2
SYMATTR Value SINE(0 5 10k)
SYMATTR InstName V1
SYMBOL voltage -1024 592 R0
WINDOW 0 22 10 Left 2
WINDOW 3 33 74 Left 2
WINDOW 123 33 102 Left 2
SYMATTR InstName V2
SYMATTR Value PULSE(-1 1 5u
SYMATTR Value2 1n 1n 5u 10u)
SYMBOL voltage -704 592 R0
SYMATTR InstName V3
SYMATTR Value -15
SYMBOL voltage -736 112 R270
WINDOW 0 32 56 VTop 2
WINDOW 3 -32 56 VBottom 2
SYMATTR InstName V4
SYMATTR Value 15
SYMBOL res -336 368 R0
SYMATTR InstName R3
SYMATTR Value 2k
SYMBOL res -400 224 R0
SYMATTR InstName R4
SYMATTR Value 100k
TEXT -1048 752 Left 2 !.tran 300u
