Version 4
SHEET 1 2908 1496
WIRE 2000 400 1680 400
WIRE 1120 416 1088 416
WIRE 1248 416 1200 416
WIRE 1408 416 1328 416
WIRE 1680 432 1680 400
WIRE 1408 464 1408 416
WIRE 1472 464 1408 464
WIRE 1600 464 1472 464
WIRE 1472 496 1408 496
WIRE 1568 496 1472 496
WIRE 1120 544 1088 544
WIRE 1248 544 1200 544
WIRE 1408 544 1408 496
WIRE 1408 544 1328 544
WIRE 1680 544 1680 512
WIRE 2000 576 2000 400
WIRE 1104 672 1072 672
WIRE 1232 672 1184 672
WIRE 1392 672 1312 672
WIRE 1600 688 1600 464
WIRE 1776 688 1600 688
WIRE 2224 704 2176 704
WIRE 2288 704 2224 704
WIRE 2384 704 2352 704
WIRE 1392 720 1392 672
WIRE 1456 720 1392 720
WIRE 1536 720 1456 720
WIRE 1568 720 1568 496
WIRE 1776 720 1568 720
WIRE 1456 752 1392 752
WIRE 1504 752 1456 752
WIRE 1536 784 1536 720
WIRE 1776 784 1536 784
WIRE 1104 800 1072 800
WIRE 1232 800 1184 800
WIRE 1392 800 1392 752
WIRE 1392 800 1312 800
WIRE 2224 800 2176 800
WIRE 2288 800 2224 800
WIRE 2384 800 2352 800
WIRE 1504 816 1504 752
WIRE 1776 816 1504 816
WIRE 1776 880 1504 880
WIRE 2224 896 2176 896
WIRE 2288 896 2224 896
WIRE 2384 896 2352 896
WIRE 1776 912 1536 912
WIRE 1104 928 1072 928
WIRE 1232 928 1184 928
WIRE 1392 928 1312 928
WIRE 1392 976 1392 928
WIRE 1456 976 1392 976
WIRE 1504 976 1504 880
WIRE 1504 976 1456 976
WIRE 1776 976 1568 976
WIRE 2224 992 2176 992
WIRE 2288 992 2224 992
WIRE 2384 992 2352 992
WIRE 1456 1008 1392 1008
WIRE 1536 1008 1536 912
WIRE 1536 1008 1456 1008
WIRE 1776 1008 1600 1008
WIRE 1104 1056 1072 1056
WIRE 1232 1056 1184 1056
WIRE 1392 1056 1392 1008
WIRE 1392 1056 1312 1056
WIRE 2128 1168 2128 1136
WIRE 1104 1200 1072 1200
WIRE 1232 1200 1184 1200
WIRE 1392 1200 1312 1200
WIRE 2016 1200 2016 1136
WIRE 1392 1248 1392 1200
WIRE 1456 1248 1392 1248
WIRE 1568 1248 1568 976
WIRE 1568 1248 1456 1248
WIRE 1456 1280 1392 1280
WIRE 1600 1280 1600 1008
WIRE 1600 1280 1456 1280
WIRE 1104 1328 1072 1328
WIRE 1232 1328 1184 1328
WIRE 1392 1328 1392 1280
WIRE 1392 1328 1312 1328
WIRE 2016 1328 2016 1280
FLAG 2016 1328 0
FLAG 1680 544 0
FLAG 1088 416 0
FLAG 1088 544 0
FLAG 1472 464 INA+
FLAG 1472 496 INA-
FLAG 2128 1168 0
FLAG 2384 704 0
FLAG 2224 704 Vout0
FLAG 2384 800 0
FLAG 2224 800 Vout1
FLAG 2384 896 0
FLAG 2224 896 Vout2
FLAG 2384 992 0
FLAG 2224 992 Vout3
FLAG 1072 672 0
FLAG 1072 800 0
FLAG 1456 720 INB+
FLAG 1456 752 INB-
FLAG 1072 928 0
FLAG 1072 1056 0
FLAG 1456 976 INC+
FLAG 1456 1008 INC-
FLAG 1072 1200 0
FLAG 1072 1328 0
FLAG 1456 1248 IND+
FLAG 1456 1280 IND-
SYMBOL AD7380-4 1984 848 R0
SYMATTR InstName U1
SYMBOL voltage 2016 1184 R0
WINDOW 123 0 0 Left 0
WINDOW 39 0 0 Left 0
SYMATTR InstName V1
SYMATTR Value PULSE(0 3.3 100n .2n .2n 10n 250n)
SYMBOL voltage 1680 416 R0
WINDOW 123 0 0 Left 0
WINDOW 39 0 0 Left 0
SYMATTR InstName V2
SYMATTR Value 3.3
SYMBOL voltage 1216 416 R90
WINDOW 0 -32 56 VBottom 2
WINDOW 3 32 56 VTop 2
WINDOW 123 0 0 Left 0
WINDOW 39 0 0 Left 0
SYMATTR InstName V3
SYMATTR Value PWL(0 0 100u 3.3)
SYMBOL res 1344 400 R90
WINDOW 0 0 56 VBottom 2
WINDOW 3 32 56 VTop 2
SYMATTR InstName R1
SYMATTR Value 10
SYMBOL voltage 1216 544 R90
WINDOW 0 -32 56 VBottom 2
WINDOW 3 32 56 VTop 2
WINDOW 123 0 0 Left 0
WINDOW 39 0 0 Left 0
SYMATTR InstName V4
SYMATTR Value PWL(0 3.3 100u 0)
SYMBOL res 1344 528 R90
WINDOW 0 0 56 VBottom 2
WINDOW 3 32 56 VTop 2
SYMATTR InstName R2
SYMATTR Value 10
SYMBOL cap 2352 688 R90
WINDOW 0 0 32 VBottom 2
WINDOW 3 32 32 VTop 2
SYMATTR InstName C2
SYMATTR Value 10p
SYMBOL cap 2352 784 R90
WINDOW 0 0 32 VBottom 2
WINDOW 3 32 32 VTop 2
SYMATTR InstName C3
SYMATTR Value 10p
SYMBOL cap 2352 880 R90
WINDOW 0 0 32 VBottom 2
WINDOW 3 32 32 VTop 2
SYMATTR InstName C4
SYMATTR Value 10p
SYMBOL cap 2352 976 R90
WINDOW 0 0 32 VBottom 2
WINDOW 3 32 32 VTop 2
SYMATTR InstName C5
SYMATTR Value 10p
SYMBOL voltage 1200 672 R90
WINDOW 0 -32 56 VBottom 2
WINDOW 3 32 56 VTop 2
WINDOW 123 0 0 Left 0
WINDOW 39 0 0 Left 0
SYMATTR InstName V5
SYMATTR Value PWL(0 0 100u 3.3)
SYMBOL res 1328 656 R90
WINDOW 0 0 56 VBottom 2
WINDOW 3 32 56 VTop 2
SYMATTR InstName R3
SYMATTR Value 10
SYMBOL voltage 1200 800 R90
WINDOW 0 -32 56 VBottom 2
WINDOW 3 32 56 VTop 2
WINDOW 123 0 0 Left 0
WINDOW 39 0 0 Left 0
SYMATTR InstName V6
SYMATTR Value PWL(0 3.3 100u 0)
SYMBOL res 1328 784 R90
WINDOW 0 0 56 VBottom 2
WINDOW 3 32 56 VTop 2
SYMATTR InstName R4
SYMATTR Value 10
SYMBOL voltage 1200 928 R90
WINDOW 0 -32 56 VBottom 2
WINDOW 3 32 56 VTop 2
WINDOW 123 0 0 Left 0
WINDOW 39 0 0 Left 0
SYMATTR InstName V7
SYMATTR Value PWL(0 0 100u 3.3)
SYMBOL res 1328 912 R90
WINDOW 0 0 56 VBottom 2
WINDOW 3 32 56 VTop 2
SYMATTR InstName R5
SYMATTR Value 10
SYMBOL voltage 1200 1056 R90
WINDOW 0 -32 56 VBottom 2
WINDOW 3 32 56 VTop 2
WINDOW 123 0 0 Left 0
WINDOW 39 0 0 Left 0
SYMATTR InstName V8
SYMATTR Value PWL(0 3.3 100u 0)
SYMBOL res 1328 1040 R90
WINDOW 0 0 56 VBottom 2
WINDOW 3 32 56 VTop 2
SYMATTR InstName R6
SYMATTR Value 10
SYMBOL voltage 1200 1200 R90
WINDOW 0 -32 56 VBottom 2
WINDOW 3 32 56 VTop 2
WINDOW 123 0 0 Left 0
WINDOW 39 0 0 Left 0
SYMATTR InstName V9
SYMATTR Value PWL(0 0 100u 3.3)
SYMBOL res 1328 1184 R90
WINDOW 0 0 56 VBottom 2
WINDOW 3 32 56 VTop 2
SYMATTR InstName R7
SYMATTR Value 10
SYMBOL voltage 1200 1328 R90
WINDOW 0 -32 56 VBottom 2
WINDOW 3 32 56 VTop 2
WINDOW 123 0 0 Left 0
WINDOW 39 0 0 Left 0
SYMATTR InstName V10
SYMATTR Value PWL(0 3.3 100u 0)
SYMBOL res 1328 1312 R90
WINDOW 0 0 56 VBottom 2
WINDOW 3 32 56 VTop 2
SYMATTR InstName R8
SYMATTR Value 10
TEXT 2024 1392 Left 2 !.tran 110u
