Version 4
SHEET 1 12540 5124
WIRE 10752 3008 10512 3008
WIRE 10752 3040 10752 3008
WIRE 10752 3152 10752 3120
WIRE 10512 3200 10512 3008
WIRE 9856 3280 9824 3280
WIRE 9984 3280 9936 3280
WIRE 10144 3280 10064 3280
WIRE 10144 3328 10144 3280
WIRE 10208 3328 10144 3328
WIRE 10288 3328 10208 3328
WIRE 10688 3344 10640 3344
WIRE 10720 3344 10688 3344
WIRE 10816 3344 10784 3344
WIRE 10208 3360 10144 3360
WIRE 10288 3360 10208 3360
WIRE 9856 3408 9824 3408
WIRE 9984 3408 9936 3408
WIRE 10144 3408 10144 3360
WIRE 10144 3408 10064 3408
WIRE 10768 3440 10640 3440
WIRE 10512 3520 10512 3488
WIRE 10768 3584 10768 3440
WIRE 10768 3744 10768 3664
FLAG 10768 3744 0
FLAG 10752 3152 0
FLAG 10512 3520 0
FLAG 9824 3280 0
FLAG 9824 3408 0
FLAG 10816 3344 0
FLAG 10208 3328 IN+
FLAG 10208 3360 IN-
FLAG 10688 3344 Vout
SYMBOL voltage 10768 3568 M0
WINDOW 123 0 0 Left 0
WINDOW 39 0 0 Left 0
SYMATTR InstName V3
SYMATTR Value PULSE(0 3.3 100n .2n .2n 10n 250n)
SYMBOL voltage 10752 3024 R0
WINDOW 123 0 0 Left 0
WINDOW 39 0 0 Left 0
SYMATTR InstName V4
SYMATTR Value 3.3
SYMBOL voltage 9952 3280 R90
WINDOW 0 -32 56 VBottom 2
WINDOW 3 32 56 VTop 2
WINDOW 123 0 0 Left 0
WINDOW 39 0 0 Left 0
SYMATTR InstName V1
SYMATTR Value PWL(0 0 100u 3.3)
SYMBOL res 10080 3264 R90
WINDOW 0 0 56 VBottom 2
WINDOW 3 32 56 VTop 2
SYMATTR InstName R1
SYMATTR Value 10
SYMBOL voltage 9952 3408 R90
WINDOW 0 -32 56 VBottom 2
WINDOW 3 32 56 VTop 2
WINDOW 123 0 0 Left 0
WINDOW 39 0 0 Left 0
SYMATTR InstName V2
SYMATTR Value PWL(0 3.3 100u 0)
SYMBOL res 10080 3392 R90
WINDOW 0 0 56 VBottom 2
WINDOW 3 32 56 VTop 2
SYMATTR InstName R2
SYMATTR Value 10
SYMBOL cap 10784 3328 R90
WINDOW 0 0 32 VBottom 2
WINDOW 3 32 32 VTop 2
SYMATTR InstName C1
SYMATTR Value 10p
SYMBOL AD7380 10544 3344 R0
SYMATTR InstName U1
TEXT 10896 3656 Left 2 !.tran 110u
