Version 4
SHEET 1 1400 680
WIRE 1040 -288 1024 -288
WIRE 1136 -288 1120 -288
WIRE 1136 -272 1136 -288
WIRE 1024 -208 1024 -288
WIRE 736 -192 624 -192
WIRE 800 -192 736 -192
WIRE 624 -176 624 -192
WIRE 800 -160 768 -160
WIRE 768 -96 768 -160
WIRE 800 -96 768 -96
WIRE 624 -80 624 -96
WIRE 768 -64 768 -96
WIRE 800 -64 768 -64
WIRE 1248 -64 1216 -64
WIRE 1344 -64 1248 -64
WIRE 768 -32 768 -64
WIRE 800 -32 768 -32
WIRE 1344 -32 1344 -64
WIRE 736 48 624 48
WIRE 800 48 736 48
WIRE 1248 48 1248 -64
WIRE 1248 48 1216 48
WIRE 768 80 768 -32
WIRE 800 80 768 80
WIRE 1248 80 1216 80
WIRE 1344 80 1344 48
WIRE 1248 96 1248 80
WIRE 768 112 768 80
WIRE 624 144 624 48
WIRE 1024 144 1024 112
WIRE 1248 192 1248 176
WIRE 624 256 624 224
WIRE 1024 256 1024 224
FLAG 1344 80 0
FLAG 1248 192 0
FLAG 1024 256 0
FLAG 1136 -272 0
FLAG 768 112 0
FLAG 624 256 0
FLAG 624 -80 0
FLAG 736 -192 X
FLAG 1344 -64 W
FLAG 736 48 Y
SYMBOL voltage 624 -192 R0
WINDOW 123 0 0 Left 0
WINDOW 39 0 0 Left 0
WINDOW 3 -119 -22 Left 2
SYMATTR Value SINE(0 0.5 100k)
SYMATTR InstName VX
SYMBOL voltage 624 128 R0
WINDOW 123 0 0 Left 0
WINDOW 39 0 0 Left 0
SYMATTR InstName VY
SYMATTR Value SINE(0 0.5 110k)
SYMBOL AD734 1024 -48 R0
SYMATTR InstName U1
SYMBOL res 1328 -48 R0
SYMATTR InstName R3
SYMATTR Value 2k
SYMBOL res 1232 80 R0
SYMATTR InstName R4
SYMATTR Value 1Meg
SYMBOL voltage 1024 128 R0
SYMATTR InstName V-
SYMATTR Value -15
SYMBOL voltage 1024 -288 R270
WINDOW 0 32 56 VTop 2
WINDOW 3 -32 56 VBottom 2
SYMATTR InstName V+
SYMATTR Value 15
TEXT 616 320 Left 2 !.tran 100u
