Version 4
SHEET 1 880 680
WIRE -64 -144 -96 -144
WIRE 192 -144 16 -144
WIRE 32 -48 32 -64
WIRE -208 -32 -384 -32
WIRE -96 -32 -96 -144
WIRE -96 -32 -128 -32
WIRE 192 -32 192 -144
WIRE 288 -32 192 -32
WIRE -384 0 -384 -32
WIRE -96 16 -96 -32
WIRE 0 16 -96 16
WIRE 192 16 192 -32
WIRE 192 16 160 16
WIRE 288 16 288 -32
WIRE -752 32 -768 32
WIRE -640 32 -656 32
WIRE -528 32 -544 32
WIRE -768 64 -768 32
WIRE -656 64 -656 32
WIRE -544 64 -544 32
WIRE 0 80 -96 80
WIRE 192 80 160 80
WIRE -384 128 -384 80
WIRE -208 128 -384 128
WIRE -96 128 -96 80
WIRE -96 128 -128 128
WIRE 192 128 192 80
WIRE 288 128 288 96
WIRE 288 128 192 128
WIRE -768 160 -768 144
WIRE -656 160 -656 144
WIRE -544 160 -544 144
WIRE -384 160 -384 128
WIRE 32 160 32 144
WIRE 64 160 64 144
WIRE -384 256 -384 240
WIRE -96 256 -96 128
WIRE -64 256 -96 256
WIRE 192 256 192 128
WIRE 192 256 16 256
FLAG -768 160 0
FLAG -656 160 0
FLAG -544 160 0
FLAG -544 32 VOCM
FLAG -384 256 0
FLAG 288 -32 VOUTN
FLAG 288 128 VOUTP
FLAG 32 -64 VCC
FLAG 32 160 VEE
FLAG 64 160 VOCM
FLAG -656 32 VEE
FLAG -768 32 VCC
SYMBOL voltage -768 48 R0
SYMATTR InstName V1
SYMATTR Value 5
SYMBOL voltage -656 48 R0
SYMATTR InstName V2
SYMATTR Value 0
SYMBOL voltage -544 48 R0
WINDOW 123 0 0 Left 0
WINDOW 39 0 0 Left 0
SYMATTR InstName V3
SYMATTR Value 2.5
SYMBOL res 32 -160 R90
WINDOW 0 0 56 VBottom 2
WINDOW 3 32 56 VTop 2
SYMATTR InstName R1
SYMATTR Value 200
SYMBOL res 272 0 R0
SYMATTR InstName RL
SYMATTR Value 1k
SYMBOL res -112 -48 R90
WINDOW 0 0 56 VBottom 2
WINDOW 3 32 56 VTop 2
SYMATTR InstName R2
SYMATTR Value 200
SYMBOL res -112 112 R90
WINDOW 0 0 56 VBottom 2
WINDOW 3 32 56 VTop 2
SYMATTR InstName R3
SYMATTR Value 200
SYMBOL res 32 240 R90
WINDOW 0 0 56 VBottom 2
WINDOW 3 32 56 VTop 2
SYMATTR InstName R4
SYMATTR Value 200
SYMBOL AD8139 32 48 R0
SYMATTR InstName U1
SYMBOL voltage -384 -16 R0
WINDOW 3 39 66 Left 2
WINDOW 123 35 101 Left 2
SYMATTR Value SINE(0 10m 1k)
SYMATTR Value2 AC 1
SYMATTR InstName V4
SYMBOL voltage -384 144 R0
SYMATTR InstName V5
SYMATTR Value 2.5
TEXT -360 320 Left 2 !.ac dec 20 1Meg 1G
