Version 4
SHEET 1 1960 820
WIRE -1888 -272 -2544 -272
WIRE -2320 -208 -2448 -208
WIRE -2128 -208 -2256 -208
WIRE -3056 -112 -3200 -112
WIRE -2448 -112 -2448 -208
WIRE -2416 -112 -2448 -112
WIRE -2128 -112 -2128 -208
WIRE -2128 -112 -2160 -112
WIRE -2032 -112 -2128 -112
WIRE -1888 -112 -1888 -272
WIRE -1888 -112 -1952 -112
WIRE -3200 -80 -3200 -112
WIRE -3056 -64 -3056 -112
WIRE -2784 -64 -3056 -64
WIRE -2736 -64 -2784 -64
WIRE -2416 -64 -2656 -64
WIRE -2096 -64 -2160 -64
WIRE -1888 -64 -1888 -112
WIRE -1888 -64 -2096 -64
WIRE -2960 -16 -3056 -16
WIRE -2736 -16 -2960 -16
WIRE -2416 -16 -2656 -16
WIRE -2096 -16 -2160 -16
WIRE -1888 -16 -2096 -16
WIRE -1680 -16 -1888 -16
WIRE -1488 -16 -1680 -16
WIRE -1888 16 -1888 -16
WIRE -1680 16 -1680 -16
WIRE -3200 32 -3200 0
WIRE -3056 32 -3056 -16
WIRE -3056 32 -3200 32
WIRE -2512 32 -2592 32
WIRE -2416 32 -2448 32
WIRE -2112 32 -2160 32
WIRE -2080 32 -2112 32
WIRE -1968 32 -2080 32
WIRE -2592 80 -2592 32
WIRE -2416 80 -2592 80
WIRE -2128 80 -2160 80
WIRE -2032 80 -2128 80
WIRE -1968 112 -1968 32
WIRE -1888 112 -1888 96
WIRE -1888 112 -1968 112
WIRE -2128 128 -2128 80
WIRE -2128 128 -2160 128
WIRE -1488 128 -1488 -16
WIRE -2960 144 -2960 -16
WIRE -2784 144 -2784 -64
WIRE -1968 144 -1968 112
WIRE -1888 144 -1888 112
WIRE -2544 176 -2544 -272
WIRE -2416 176 -2544 176
WIRE -2080 176 -2080 32
WIRE -2080 176 -2160 176
WIRE -2416 224 -2480 224
WIRE -2080 224 -2080 176
WIRE -2080 224 -2160 224
WIRE -2032 240 -2032 80
WIRE -1968 240 -1968 224
WIRE -1968 240 -2032 240
WIRE -1888 240 -1888 208
WIRE -1888 240 -1968 240
WIRE -1680 240 -1680 96
WIRE -1680 240 -1888 240
WIRE -1488 240 -1488 192
WIRE -1488 240 -1680 240
WIRE -2416 272 -2448 272
WIRE -2080 272 -2080 224
WIRE -2080 272 -2160 272
WIRE -1488 288 -1488 240
WIRE -2960 304 -2960 224
WIRE -2784 304 -2784 224
WIRE -2784 304 -2960 304
WIRE -2592 304 -2592 80
WIRE -2592 304 -2784 304
WIRE -2448 320 -2448 272
WIRE -2448 320 -2480 320
WIRE -2416 320 -2448 320
WIRE -2128 320 -2160 320
FLAG -1488 288 0
FLAG -2128 320 LOD
FLAG -2480 320 OUT
FLAG -2480 224 REFOUT
FLAG -2112 32 +VS
FLAG -2096 -64 IAOUT
FLAG -2096 -16 REFIN
SYMBOL cap -2256 -224 R90
WINDOW 0 0 32 VBottom 2
WINDOW 3 32 32 VTop 2
SYMATTR InstName C4
SYMATTR Value 0.22µ
SYMBOL res -1936 -96 M270
WINDOW 3 81 99 VLeft 2
WINDOW 38 53 128 VLeft 2
WINDOW 0 111 71 VLeft 2
SYMATTR Value 10Meg
SYMATTR SpiceModel R_NONOISE
SYMATTR InstName R2
SYMBOL res -1696 112 M180
WINDOW 3 43 68 Left 2
WINDOW 38 47 34 Left 2
WINDOW 0 39 96 Left 2
SYMATTR Value 10Meg
SYMATTR SpiceModel R_NONOISE
SYMATTR InstName R5
SYMBOL cap -1504 192 M180
WINDOW 0 24 56 Left 2
WINDOW 3 24 8 Left 2
SYMATTR InstName C5
SYMATTR Value 0.1µ
SYMBOL cap -1904 208 M180
WINDOW 0 24 56 Left 2
WINDOW 3 24 8 Left 2
SYMATTR InstName C6
SYMATTR Value 0.1µ
SYMBOL cap -2512 48 R270
WINDOW 0 32 32 VTop 2
WINDOW 3 0 32 VBottom 2
SYMATTR InstName C7
SYMATTR Value 1n
SYMBOL res -2752 -48 R270
WINDOW 3 78 34 VRight 2
WINDOW 38 49 -12 VRight 2
WINDOW 0 110 43 VRight 2
SYMATTR Value 180k
SYMATTR SpiceModel R_NONOISE
SYMATTR InstName R6
SYMBOL res -2752 -32 M90
WINDOW 3 81 85 VLeft 2
WINDOW 38 113 129 VLeft 2
WINDOW 0 51 71 VLeft 2
SYMATTR Value 180k
SYMATTR SpiceModel R_NONOISE
SYMATTR InstName R7
SYMBOL voltage -3200 -96 M0
WINDOW 123 -63 104 Left 2
WINDOW 39 24 114 Left 2
WINDOW 3 -192 145 Left 2
WINDOW 0 -52 7 Left 2
SYMATTR Value2 AC 1
SYMATTR Value SINE(0 10m 1k)
SYMATTR InstName Vin
SYMBOL voltage -1968 128 R0
WINDOW 123 0 0 Left 0
WINDOW 39 0 0 Left 0
SYMATTR InstName Vs
SYMATTR Value 3
SYMBOL res -2944 240 R180
WINDOW 3 -89 56 Left 2
WINDOW 38 -132 6 Left 2
WINDOW 0 -44 84 Left 2
SYMATTR Value 10Meg
SYMATTR SpiceModel R_NONOISE
SYMATTR InstName R8
SYMBOL AD8233 -2288 112 R0
SYMATTR InstName U1
SYMBOL res -2768 240 R180
WINDOW 3 -89 56 Left 2
WINDOW 38 -132 6 Left 2
WINDOW 0 -44 84 Left 2
SYMATTR Value 10Meg
SYMATTR SpiceModel R_NONOISE
SYMATTR InstName R9
SYMBOL res -1904 112 M180
WINDOW 3 43 68 Left 2
WINDOW 38 47 34 Left 2
WINDOW 0 39 96 Left 2
SYMATTR Value 10Meg
SYMATTR SpiceModel R_NONOISE
SYMATTR InstName R4
TEXT -3080 472 Left 2 !.ac dec 10 0.1 10k
TEXT -3080 432 Left 2 ;.op
TEXT -3080 512 Left 2 ;.tran 1
TEXT -2296 -544 Left 2 ;DC LOD:\nTwo-electrode set-up:\nConnect each input to +VS through 10Meg\nThree-electrode set-up:\nConnect -IN to GND through 10Meg and +IN to +VS through 10Meg
TEXT -2912 -376 Left 2 ;AC_DC_BAR=GND: DC LOD\nAC_DC_BAR=+VS: AC LOD
TEXT -2912 -544 Left 2 ;SDN_BAR=GND: IC OFF, LOD ON, FR ON\nSDN_BAR=+VS: IC ON, LOD ON, FR ON\n \nRLD_SDN_BAR=GND: RLD OFF\nRLD_SDN_BAR=+VS: RLD ON
TEXT -3088 376 Left 2 !.model R_NONOISE RES(T_ABS=-273.15)
TEXT -2912 -616 Left 3 ;AD8233 Heart Rate Measurement (HRM) Next to the Heart
