Version 4
SHEET 1 1776 680
WIRE -128 16 -272 16
WIRE -272 32 -272 16
WIRE 48 48 48 32
WIRE 80 80 80 64
WIRE -128 96 -128 16
WIRE -32 96 -128 96
WIRE 16 96 -32 96
WIRE -272 128 -272 112
WIRE -272 128 -400 128
WIRE 192 128 144 128
WIRE 256 128 192 128
WIRE -272 144 -272 128
WIRE 192 144 192 128
WIRE -752 160 -752 128
WIRE -640 160 -640 128
WIRE -528 160 -528 128
WIRE -400 160 -400 128
WIRE -32 160 -128 160
WIRE 16 160 -32 160
WIRE 48 224 48 208
WIRE 48 224 32 224
WIRE -272 240 -272 224
WIRE -128 240 -128 160
WIRE -128 240 -272 240
WIRE 112 240 112 160
WIRE 192 240 192 224
WIRE 192 240 112 240
WIRE -752 256 -752 240
WIRE -640 256 -640 240
WIRE -528 256 -528 240
WIRE -400 256 -400 240
WIRE 80 256 80 192
WIRE 80 288 80 256
WIRE 96 288 80 288
WIRE 192 288 192 240
WIRE 192 288 176 288
FLAG -32 160 Vin-
FLAG -32 96 Vin+
FLAG 256 128 Vout
FLAG -752 128 Vs+
FLAG -640 128 Vs-
FLAG -752 256 0
FLAG -640 256 0
FLAG -528 128 Vref
FLAG -528 256 0
FLAG -400 256 0
FLAG 32 224 Vs-
FLAG 48 32 Vs+
FLAG 80 64 Vs-
FLAG 80 256 Vref
SYMBOL voltage -752 144 R0
WINDOW 123 0 0 Left 0
WINDOW 39 0 0 Left 0
SYMATTR InstName V1
SYMATTR Value 5
SYMBOL voltage -640 144 R0
WINDOW 123 0 0 Left 0
WINDOW 39 0 0 Left 0
SYMATTR InstName V2
SYMATTR Value 0
SYMBOL voltage -528 144 R0
WINDOW 123 0 0 Left 0
WINDOW 39 0 0 Left 0
SYMATTR InstName V3
SYMATTR Value 2.5
SYMBOL voltage -400 144 R0
WINDOW 123 0 0 Left 0
WINDOW 39 0 0 Left 0
SYMATTR InstName V4
SYMATTR Value 2.5
SYMBOL voltage -272 16 R0
WINDOW 123 0 0 Left 0
WINDOW 39 0 0 Left 0
WINDOW 3 -2 -22 Left 2
SYMATTR Value SINE(0 10m 1k)
SYMATTR InstName V5
SYMBOL voltage -272 128 R0
WINDOW 123 0 0 Left 0
WINDOW 39 0 0 Left 0
WINDOW 3 0 133 Left 2
WINDOW 0 26 96 Left 2
SYMATTR Value SINE(0 10m 1k)
SYMATTR InstName V6
SYMBOL AD8237 80 128 R0
SYMATTR InstName U1
SYMBOL res 80 304 R270
WINDOW 0 32 56 VTop 2
WINDOW 3 0 56 VBottom 2
SYMATTR InstName R1
SYMATTR Value 1k
SYMBOL res 176 128 R0
SYMATTR InstName R2
SYMATTR Value 9k
TEXT 224 264 Left 2 ;Configured for\ngain of 10V/V
TEXT -24 352 Left 2 ;Note:\nIn high bandwidth mode,\nreal part has instability for G < 10 V/V
TEXT -816 416 Left 2 !.tran 5m
