Version 4
SHEET 1 880 680
WIRE -192 -160 -208 -160
WIRE -32 -160 -112 -160
WIRE 16 -160 0 -160
WIRE 112 -160 96 -160
WIRE -208 -144 -208 -160
WIRE 112 -144 112 -160
WIRE -32 -112 -32 -160
WIRE 0 -112 0 -160
WIRE -32 -64 -32 -112
WIRE 0 -64 0 -112
WIRE -416 -16 -432 -16
WIRE -112 -16 -336 -16
WIRE -64 -16 -112 -16
WIRE 208 0 160 0
WIRE 352 0 208 0
WIRE -432 16 -432 -16
WIRE -112 16 -304 16
WIRE -64 16 -112 16
WIRE -304 64 -304 16
WIRE -272 64 -304 64
WIRE -176 64 -192 64
WIRE -112 64 -176 64
WIRE -64 64 -112 64
WIRE 352 64 352 0
WIRE -176 96 -176 64
WIRE 32 96 32 64
WIRE 32 96 -176 96
WIRE 48 96 48 64
WIRE 48 96 32 96
WIRE 80 96 80 64
WIRE 112 96 112 64
WIRE 112 96 80 96
WIRE -304 112 -304 64
WIRE 80 112 80 96
WIRE -16 128 -16 64
WIRE 144 128 144 64
WIRE 352 160 352 144
WIRE -304 224 -304 192
WIRE -16 224 -16 208
WIRE 144 224 144 208
FLAG 352 160 0
FLAG 208 0 OUT
FLAG -432 16 0
FLAG 144 224 0
FLAG 112 -144 0
FLAG -208 -144 0
FLAG -32 -112 VPOS
FLAG -16 224 0
FLAG 80 112 0
FLAG -112 16 INPN
FLAG -112 64 PRAO
FLAG -304 224 0
FLAG -112 -16 INPP
FLAG 0 -112 PWRA
SYMBOL res 336 48 R0
SYMATTR InstName R1
SYMATTR Value 500
SYMBOL res -320 96 R0
SYMATTR InstName R2
SYMATTR Value 100
SYMBOL res -176 48 R90
WINDOW 0 0 56 VBottom 2
WINDOW 3 32 56 VTop 2
SYMATTR InstName R3
SYMATTR Value 301
SYMBOL voltage 144 112 R0
SYMATTR InstName V2
SYMATTR Value {Vgain}
SYMBOL voltage 0 -160 R270
WINDOW 0 32 56 VTop 2
WINDOW 3 -32 56 VBottom 2
SYMATTR InstName V3
SYMATTR Value 0
SYMBOL voltage -96 -160 R90
WINDOW 0 -32 56 VBottom 2
WINDOW 3 32 56 VTop 2
SYMATTR InstName V4
SYMATTR Value 5
SYMBOL voltage -16 112 R0
SYMATTR InstName V5
SYMATTR Value -5
SYMBOL voltage -320 -16 R90
WINDOW 0 -32 56 VBottom 2
WINDOW 3 32 56 VTop 2
SYMATTR InstName V1
SYMATTR Value 0 AC 1
SYMBOL AD8336 -16 -48 R0
SYMATTR InstName U1
TEXT -160 -352 Left 2 !.op\n.ac dec 20 100k 500Meg
TEXT -160 -296 Left 2 !.step param Vgain list -0.7 -0.5 -0.2 0 0.2 0.5 0.7
