Version 4
SHEET 1 1144 680
WIRE 320 -112 288 -112
WIRE 416 -112 400 -112
WIRE 416 -96 416 -112
WIRE 288 -32 288 -112
WIRE 32 0 -176 0
WIRE 80 0 32 0
WIRE 528 0 480 0
WIRE 544 0 528 0
WIRE -176 16 -176 0
WIRE 32 64 -64 64
WIRE 80 64 32 64
WIRE 528 64 480 64
WIRE 544 64 528 64
WIRE -176 128 -176 96
WIRE 32 128 -176 128
WIRE 80 128 32 128
WIRE 544 128 544 64
WIRE 544 128 480 128
WIRE -176 144 -176 128
WIRE 80 192 48 192
WIRE 592 192 480 192
WIRE 640 192 592 192
WIRE 752 192 720 192
WIRE 48 208 48 192
WIRE 592 208 592 192
WIRE -176 224 -176 208
WIRE 752 224 752 192
WIRE -64 240 -64 64
WIRE 528 304 480 304
WIRE 592 304 592 288
WIRE 592 304 528 304
WIRE -176 320 -176 304
WIRE -64 320 -64 304
WIRE 224 384 224 368
WIRE 352 384 352 368
WIRE 224 480 224 464
FLAG 352 384 0
FLAG 528 0 VREF
FLAG 416 -96 0
FLAG 288 -112 VPS
FLAG -64 320 0
FLAG -176 320 0
FLAG 752 224 0
FLAG 48 208 0
FLAG 528 64 VLOG
FLAG 528 304 VOUT
FLAG 32 128 INPT
FLAG 32 64 VSUM
FLAG 32 0 VPDB
FLAG 224 480 0
SYMBOL voltage 304 -112 R270
WINDOW 0 32 56 VTop 2
WINDOW 3 -32 56 VBottom 2
SYMATTR InstName V1
SYMATTR Value 5
SYMBOL cap -80 240 R0
SYMATTR InstName V2
SYMATTR Value 100n
SYMBOL current -176 16 R0
WINDOW 123 0 0 Left 0
WINDOW 39 0 0 Left 0
SYMATTR InstName Ipd
SYMATTR Value {Ipd}
SYMBOL cap -192 144 R0
SYMATTR InstName C1
SYMATTR Value 1n
SYMBOL res -192 208 R0
SYMATTR InstName R1
SYMATTR Value 750
SYMBOL res 736 176 R90
WINDOW 0 0 56 VBottom 2
WINDOW 3 32 56 VTop 2
SYMATTR InstName R2
SYMATTR Value 10k
SYMBOL res 576 192 R0
SYMATTR InstName R3
SYMATTR Value 15k
SYMBOL AD8304 288 160 R0
SYMATTR InstName U1
SYMBOL voltage 224 368 R0
SYMATTR InstName V3
SYMATTR Value -0.5
TEXT -184 376 Left 2 !.op
TEXT -176 -80 Left 2 !.step dec param Ipd 100p 10m 10
