Version 4
SHEET 1 2488 4284
WIRE -1296 -688 -1312 -688
WIRE -1120 -688 -1232 -688
WIRE -1088 -688 -1120 -688
WIRE -1040 -688 -1088 -688
WIRE -944 -688 -960 -688
WIRE -944 -672 -944 -688
WIRE -1216 -624 -1248 -624
WIRE -1120 -624 -1120 -688
WIRE -1120 -624 -1152 -624
WIRE -1120 -576 -1120 -624
WIRE -1120 -576 -1184 -576
WIRE -1056 -576 -1120 -576
WIRE -1312 -544 -1312 -688
WIRE -1248 -544 -1248 -624
WIRE -1184 -544 -1184 -576
WIRE -1120 -544 -1120 -576
WIRE -1056 -544 -1056 -576
WIRE -1872 -448 -1888 -448
WIRE -1744 -448 -1792 -448
WIRE -1664 -448 -1744 -448
WIRE -1568 -448 -1600 -448
WIRE -1408 -448 -1568 -448
WIRE -1568 -416 -1568 -448
WIRE -800 -384 -848 -384
WIRE -768 -384 -800 -384
WIRE -1440 -320 -1488 -320
WIRE -1408 -320 -1440 -320
WIRE -800 -320 -800 -384
WIRE -800 -320 -848 -320
WIRE -1488 -272 -1488 -320
WIRE -1440 -256 -1440 -320
WIRE -1408 -256 -1440 -256
WIRE -800 -256 -848 -256
WIRE -1488 -192 -1488 -208
WIRE -1408 -192 -1488 -192
WIRE -800 -192 -800 -256
WIRE -800 -192 -848 -192
WIRE -800 -160 -800 -192
WIRE -800 -80 -800 -96
WIRE -1056 -32 -1056 -64
WIRE -1568 -16 -1568 -336
WIRE -1232 -16 -1568 -16
WIRE -1184 -16 -1184 -64
WIRE -1184 -16 -1232 -16
WIRE -1120 -16 -1120 -64
WIRE -1120 32 -1120 -16
WIRE -1120 128 -1120 112
FLAG -1744 -448 IN
FLAG -1888 -448 0
FLAG -1120 128 0
FLAG -800 -80 0
FLAG -768 -384 DCOUT
FLAG -1056 -32 0
FLAG -944 -672 0
FLAG -1088 -688 VCC
FLAG -1120 -16 VEE
FLAG -1232 -16 IGND
SYMBOL AD8436 -1120 -320 R0
SYMATTR InstName U1
SYMBOL cap -816 -96 M180
WINDOW 0 24 56 Left 2
WINDOW 3 24 8 Left 2
SYMATTR InstName C2
SYMATTR Value 3.3µ
SYMBOL voltage -1120 16 R0
SYMATTR InstName V3
SYMATTR Value -2.5
SYMBOL cap -1152 -640 R90
WINDOW 0 0 32 VBottom 2
WINDOW 3 32 32 VTop 2
SYMATTR InstName C3
SYMATTR Value 0.1µ
SYMBOL cap -1232 -704 R90
WINDOW 0 0 32 VBottom 2
WINDOW 3 32 32 VTop 2
SYMATTR InstName C4
SYMATTR Value 10µ
SYMBOL voltage -1056 -688 R270
WINDOW 0 32 56 VTop 2
WINDOW 3 -32 56 VBottom 2
SYMATTR InstName V2
SYMATTR Value 2.5
SYMBOL voltage -1776 -448 R90
WINDOW 3 35 56 VTop 2
WINDOW 0 -32 56 VBottom 2
SYMATTR Value SINE(0 {1*sqrt(2)} 1k)
SYMATTR InstName V1
SYMBOL cap -1600 -464 R90
WINDOW 0 0 32 VBottom 2
WINDOW 3 32 32 VTop 2
SYMATTR InstName C5
SYMATTR Value 0.47µ
SYMBOL res -1584 -432 R0
SYMATTR InstName R1
SYMATTR Value 10Meg
SYMBOL cap -1504 -272 R0
SYMATTR InstName C1
SYMATTR Value 10µ
TEXT -1568 40 Left 2 !.tran 1
