Version 4
SHEET 1 1168 708
WIRE 240 192 96 192
WIRE 576 192 480 192
WIRE 704 192 608 192
WIRE 96 224 96 192
WIRE 480 224 480 192
WIRE 704 224 704 192
WIRE 96 336 96 304
WIRE 480 336 480 304
WIRE 704 336 704 304
WIRE 576 368 576 192
WIRE 608 368 608 192
WIRE 240 384 240 192
WIRE 320 384 240 384
WIRE 240 416 240 384
WIRE 320 416 320 384
WIRE 512 416 320 416
WIRE 544 416 512 416
WIRE 944 448 688 448
WIRE 512 480 320 480
WIRE 544 480 512 480
WIRE 240 512 240 496
WIRE 320 512 320 480
WIRE 320 512 240 512
WIRE 240 560 240 512
WIRE 608 560 608 528
WIRE 704 560 608 560
WIRE 704 576 704 560
WIRE 240 688 240 624
WIRE 576 688 576 528
WIRE 704 688 704 656
FLAG 480 336 0
FLAG 944 448 OUT
FLAG 240 688 0
FLAG 512 480 -IN
FLAG 512 416 +IN
FLAG 576 688 0
FLAG 96 336 0
FLAG 704 336 0
FLAG 704 688 0
SYMBOL res 256 512 R180
WINDOW 0 36 76 Left 2
WINDOW 3 36 40 Left 2
SYMATTR InstName Rshunt
SYMATTR Value 0.001
SYMBOL voltage 480 208 M0
SYMATTR InstName VS
SYMATTR Value 5
SYMBOL voltage 96 208 M0
WINDOW 123 0 0 Left 0
WINDOW 39 0 0 Left 0
SYMATTR InstName VCM
SYMATTR Value 48
SYMBOL load 256 560 M0
WINDOW 123 0 0 Left 0
WINDOW 39 0 0 Left 0
SYMATTR InstName Iload
SYMATTR Value PWL(0 0 +250m -50 +500m 50 +250m 0)
SYMBOL voltage 704 208 R0
WINDOW 123 0 0 Left 0
WINDOW 39 0 0 Left 0
SYMATTR InstName VREF1
SYMATTR Value 5
SYMBOL voltage 704 560 R0
WINDOW 123 0 0 Left 0
WINDOW 39 0 0 Left 0
SYMATTR InstName VREF2
SYMATTR Value 0
SYMBOL AD8411A 576 448 R0
SYMATTR InstName U1
TEXT 736 416 Left 2 ;Current Sense Output
TEXT 360 592 Left 2 !.tran 1
TEXT 48 440 Center 2 ;Ishunt\n-50A to 50A
TEXT 88 16 Left 4 ;Current Sensing
TEXT 608 8 Left 2 ;Bidirectional Operation: \n          REF1 = VS, REF2 = GND\nUnidirectional Operation: \n          VS Referenced:    REF1=REF2 = VS            \n          GND Referenced: REF1=REF2 = GND
