Version 4
SHEET 1 2124 680
WIRE 1536 -128 1408 -128
WIRE 1696 -128 1616 -128
WIRE 1488 -16 1472 -16
WIRE 1600 -16 1568 -16
WIRE 1600 0 1600 -16
WIRE 1552 64 1504 64
WIRE 1648 64 1616 64
WIRE 1648 80 1648 64
WIRE 1472 96 1472 -16
WIRE 1504 96 1504 64
WIRE 1952 112 1856 112
WIRE 1296 144 1264 144
WIRE 1408 144 1408 -128
WIRE 1408 144 1376 144
WIRE 1440 144 1408 144
WIRE 1856 144 1856 112
WIRE 1952 144 1952 112
WIRE 1264 160 1264 144
WIRE 1696 160 1696 -128
WIRE 1696 160 1600 160
WIRE 1760 160 1696 160
WIRE 1808 160 1760 160
WIRE 1296 208 1152 208
WIRE 1408 208 1376 208
WIRE 1440 208 1408 208
WIRE 1696 224 1600 224
WIRE 1760 224 1696 224
WIRE 1808 224 1808 208
WIRE 1808 224 1760 224
WIRE 1152 240 1152 208
WIRE 1856 256 1856 224
WIRE 1952 256 1952 224
WIRE 1472 304 1472 288
WIRE 1152 352 1152 320
WIRE 1408 368 1408 208
WIRE 1536 368 1408 368
WIRE 1696 368 1696 224
WIRE 1696 368 1616 368
FLAG 1952 112 OUT_DIFF
FLAG 1648 80 0
FLAG 1600 0 0
FLAG 1152 208 IN
FLAG 1152 352 0
FLAG 1760 160 OUT-
FLAG 1760 224 OUT+
FLAG 1856 256 0
FLAG 1952 256 0
FLAG 1472 304 0
FLAG 1264 160 0
SYMBOL ADA4937 1472 192 R0
SYMATTR InstName U1
SYMBOL g 1856 128 R0
SYMATTR InstName G1
SYMATTR Value -1m
SYMBOL res 1936 128 R0
SYMATTR InstName R5
SYMATTR Value 1k
SYMBOL voltage 1472 -16 R270
WINDOW 0 32 56 VTop 2
WINDOW 3 -32 56 VBottom 2
SYMATTR InstName VS1
SYMATTR Value 5
SYMBOL voltage 1152 224 R0
WINDOW 0 74 67 Right 2
WINDOW 3 40 100 Left 2
WINDOW 123 90 88 Right 2
WINDOW 39 0 0 Left 0
SYMATTR InstName Vin
SYMATTR Value SINE(0 1 20Meg)
SYMBOL res 1392 192 R90
WINDOW 0 65 57 VBottom 2
WINDOW 3 65 58 VTop 2
SYMATTR InstName RG1
SYMATTR Value 499
SYMBOL res 1632 352 R90
WINDOW 0 0 56 VBottom 2
WINDOW 3 32 56 VTop 2
SYMATTR InstName RF1
SYMATTR Value 499
SYMBOL res 1392 128 R90
WINDOW 0 -26 54 VBottom 2
WINDOW 3 -28 55 VTop 2
SYMATTR InstName RG2
SYMATTR Value 499
SYMBOL res 1632 -144 R90
WINDOW 0 0 56 VBottom 2
WINDOW 3 36 57 VTop 2
SYMATTR InstName RF2
SYMATTR Value 499
SYMBOL cap 1616 48 R90
WINDOW 0 0 32 VBottom 2
WINDOW 3 32 32 VTop 2
SYMATTR InstName C1
SYMATTR Value 0.1µ
TEXT 1120 416 Left 2 !.tran 100n
