Version 4
SHEET 1 1240 700
WIRE 416 -1232 400 -1232
WIRE 512 -1232 496 -1232
WIRE 544 -1232 512 -1232
WIRE 640 -1232 624 -1232
WIRE 400 -1216 400 -1232
WIRE 32 -1152 32 -1168
WIRE 144 -1152 144 -1168
WIRE 272 -1152 272 -1168
WIRE 560 -1136 560 -1152
WIRE 512 -1120 512 -1232
WIRE 544 -1120 512 -1120
WIRE 640 -1104 640 -1232
WIRE 640 -1104 608 -1104
WIRE 704 -1104 640 -1104
WIRE 544 -1088 432 -1088
WIRE 432 -1072 432 -1088
WIRE 32 -1056 32 -1072
WIRE 144 -1056 144 -1072
WIRE 272 -1056 272 -1072
WIRE 560 -1056 560 -1072
WIRE 592 -1056 592 -1072
WIRE 432 -976 432 -992
FLAG 32 -1168 +V
FLAG 32 -1056 0
FLAG 432 -976 0
FLAG 704 -1104 OUT
FLAG 432 -1088 IN
FLAG 560 -1152 +V
FLAG 144 -1168 -V
FLAG 144 -1056 0
FLAG 400 -1216 0
FLAG 560 -1056 -V
FLAG 592 -1056 _SD
FLAG 272 -1168 _SD
FLAG 272 -1056 0
SYMBOL voltage 32 -1168 R0
WINDOW 123 0 0 Left 0
WINDOW 39 0 0 Left 0
SYMATTR InstName V1
SYMATTR Value 20
SYMBOL voltage 432 -1088 R0
WINDOW 123 24 146 Left 2
WINDOW 39 24 125 Left 2
SYMATTR InstName V2
SYMATTR Value SINE(0 0.5 1Meg)
SYMBOL res 512 -1248 R90
WINDOW 0 0 56 VBottom 2
WINDOW 3 32 56 VTop 2
SYMATTR InstName R1
SYMATTR Value 1.21k
SYMBOL res 640 -1248 R90
WINDOW 0 0 56 VBottom 2
WINDOW 3 32 56 VTop 2
SYMATTR InstName R2
SYMATTR Value 1.21k
SYMBOL voltage 144 -1168 R0
SYMATTR InstName V3
SYMATTR Value -20
SYMBOL ADA4870 576 -1104 R0
WINDOW 3 37 25 Left 2
SYMATTR InstName U1
SYMBOL voltage 272 -1168 R0
WINDOW 123 0 0 Left 0
WINDOW 39 0 0 Left 0
SYMATTR InstName V4
SYMATTR Value -15
TEXT 776 -992 Left 2 !.tran 2u
