Version 4
SHEET 1 912 820
WIRE -656 -304 -672 -304
WIRE -512 -304 -528 -304
WIRE -384 -304 -400 -304
WIRE -240 -304 -256 -304
WIRE -672 -288 -672 -304
WIRE -528 -288 -528 -304
WIRE -400 -288 -400 -304
WIRE -256 -288 -256 -304
WIRE -32 -224 -48 -224
WIRE 432 -208 384 -208
WIRE -672 -192 -672 -208
WIRE -528 -192 -528 -208
WIRE -400 -192 -400 -208
WIRE -256 -192 -256 -208
WIRE -48 -192 -48 -224
WIRE 432 -192 432 -208
WIRE 384 -176 384 -208
WIRE 288 -144 240 -144
WIRE 336 -144 288 -144
WIRE -144 -96 -368 -96
WIRE -96 -96 -144 -96
WIRE -368 -80 -368 -96
WIRE 384 -80 384 -96
WIRE 384 -80 240 -80
WIRE 480 -80 384 -80
WIRE 624 -80 528 -80
WIRE -416 -64 -496 -64
WIRE 528 -64 528 -80
WIRE 624 -64 624 -80
WIRE 480 -48 480 -80
WIRE -144 -32 -192 -32
WIRE -96 -32 -144 -32
WIRE -416 0 -416 -16
WIRE -496 16 -496 -64
WIRE -496 16 -608 16
WIRE 384 16 240 16
WIRE 480 16 480 0
WIRE 480 16 384 16
WIRE -144 32 -224 32
WIRE -96 32 -144 32
WIRE 384 32 384 16
WIRE 528 32 528 16
WIRE 624 32 624 16
WIRE -608 48 -608 16
WIRE -368 48 -368 0
WIRE -320 48 -368 48
WIRE -368 80 -368 48
WIRE 272 80 240 80
WIRE -496 96 -496 16
WIRE -416 96 -496 96
WIRE -144 96 -192 96
WIRE -96 96 -144 96
WIRE 272 96 272 80
WIRE 384 128 384 112
WIRE -608 144 -608 128
WIRE -416 160 -416 144
WIRE -368 192 -368 160
WIRE -224 192 -224 32
WIRE -224 192 -368 192
WIRE -48 224 -48 192
WIRE -32 224 -48 224
WIRE 32 256 32 192
WIRE 64 256 64 192
WIRE 64 256 32 256
WIRE 96 256 96 192
WIRE 96 256 64 256
WIRE 128 256 128 192
WIRE 160 256 160 192
WIRE 160 256 128 256
WIRE 192 256 192 192
WIRE 192 256 160 256
WIRE 64 288 64 256
WIRE 160 288 160 256
WIRE 64 384 64 368
WIRE 160 384 160 368
FLAG -672 -192 0
FLAG -672 -304 AVDD
FLAG 288 -144 AVDD
FLAG -48 -224 VDDH
FLAG -48 224 VSSH
FLAG 272 96 0
FLAG 528 32 0
FLAG 624 -80 VOUT
FLAG 64 384 0
FLAG 160 384 0
FLAG -528 -192 0
FLAG -528 -304 VDDCP
FLAG -416 160 0
FLAG -416 0 0
FLAG -320 48 VICM
FLAG -608 144 0
FLAG -144 -96 VIN+
FLAG -144 32 VIN-
FLAG -144 96 VDDCP
FLAG 432 -192 0
FLAG 384 128 0
FLAG -400 -192 0
FLAG -400 -304 VOCM
FLAG -256 -192 0
FLAG -256 -304 VICM
FLAG -144 -32 VOCM
FLAG -608 16 VIN
FLAG 624 32 0
SYMBOL voltage -672 -304 R0
WINDOW 3 38 87 Left 2
WINDOW 123 24 124 Left 2
WINDOW 39 0 0 Left 0
SYMATTR Value 5
SYMATTR InstName V1
SYMBOL voltage -528 -304 R0
WINDOW 3 33 87 Left 2
WINDOW 123 24 124 Left 2
WINDOW 39 0 0 Left 0
SYMATTR Value 5
SYMATTR InstName V2
SYMBOL voltage 64 272 R0
SYMATTR InstName V6
SYMATTR Value 5
SYMBOL voltage -608 32 R0
WINDOW 3 -80 -58 Left 2
WINDOW 123 -242 250 Left 2
WINDOW 39 0 0 Left 0
SYMATTR Value SINE(0 0.5 2k)
SYMATTR InstName V3
SYMBOL e -368 -96 R0
SYMATTR InstName E2
SYMATTR Value 0.5
SYMBOL e -368 64 R0
SYMATTR InstName E3
SYMATTR Value 0.5
SYMBOL res 368 16 R0
SYMATTR InstName R1
SYMATTR Value 2.5k
SYMBOL res 368 -192 R0
SYMATTR InstName R2
SYMATTR Value 2.5k
SYMBOL voltage 160 272 R0
SYMATTR InstName V5
SYMATTR Value 0
SYMBOL voltage -400 -304 R0
WINDOW 3 38 87 Left 2
WINDOW 123 24 124 Left 2
WINDOW 39 0 0 Left 0
SYMATTR Value 2.5
SYMATTR InstName V8
SYMBOL voltage -256 -304 R0
WINDOW 3 33 87 Left 2
WINDOW 123 24 124 Left 2
WINDOW 39 0 0 Left 0
SYMATTR Value 10
SYMATTR InstName V9
SYMBOL g2 528 -80 R0
SYMATTR InstName G1
SYMATTR Value 1m
SYMBOL res 608 -80 R0
SYMATTR InstName R3
SYMATTR Value 1k
SYMBOL ADA4255 128 -96 R0
SYMATTR InstName U1
TEXT 224 224 Left 2 ;Gain of 8\nconfiguration
TEXT -720 408 Left 2 !.tran 2m
