Version 4
SHEET 1 1788 680
WIRE 1296 -112 1168 -112
WIRE 1456 -112 1376 -112
WIRE 1248 0 1232 0
WIRE 1360 0 1328 0
WIRE 1360 16 1360 0
WIRE 1312 80 1264 80
WIRE 1408 80 1376 80
WIRE 1408 96 1408 80
WIRE 1232 112 1232 0
WIRE 1264 112 1264 80
WIRE 1712 128 1616 128
WIRE 1056 160 1024 160
WIRE 1168 160 1168 -112
WIRE 1168 160 1136 160
WIRE 1200 160 1168 160
WIRE 1616 160 1616 128
WIRE 1712 160 1712 128
WIRE 1024 176 1024 160
WIRE 1456 176 1456 -112
WIRE 1456 176 1360 176
WIRE 1520 176 1456 176
WIRE 1568 176 1520 176
WIRE 1056 224 912 224
WIRE 1168 224 1136 224
WIRE 1200 224 1168 224
WIRE 1456 240 1360 240
WIRE 1520 240 1456 240
WIRE 1568 240 1568 224
WIRE 1568 240 1520 240
WIRE 912 256 912 224
WIRE 1616 272 1616 240
WIRE 1712 272 1712 240
WIRE 1232 320 1232 304
WIRE 912 368 912 336
WIRE 1168 384 1168 224
WIRE 1296 384 1168 384
WIRE 1456 384 1456 240
WIRE 1456 384 1376 384
FLAG 1712 128 OUT_DIFF
FLAG 1408 96 0
FLAG 1360 16 0
FLAG 912 224 IN
FLAG 912 368 0
FLAG 1520 176 OUT-
FLAG 1520 240 OUT+
FLAG 1616 272 0
FLAG 1712 272 0
FLAG 1232 320 0
FLAG 1024 176 0
SYMBOL g 1616 144 R0
SYMATTR InstName G1
SYMATTR Value -1m
SYMBOL res 1696 144 R0
SYMATTR InstName R5
SYMATTR Value 1k
SYMBOL voltage 1232 0 R270
WINDOW 0 32 56 VTop 2
WINDOW 3 -32 56 VBottom 2
SYMATTR InstName VS
SYMATTR Value 5
SYMBOL voltage 912 240 R0
WINDOW 0 89 66 Right 2
WINDOW 3 40 100 Left 2
WINDOW 123 90 88 Right 2
WINDOW 39 0 0 Left 0
SYMATTR InstName Vin
SYMATTR Value SINE(0 1 20Meg)
SYMBOL res 1152 208 R90
WINDOW 0 65 57 VBottom 2
WINDOW 3 65 58 VTop 2
SYMATTR InstName RG1
SYMATTR Value 499
SYMBOL res 1392 368 R90
WINDOW 0 0 56 VBottom 2
WINDOW 3 32 56 VTop 2
SYMATTR InstName RF1
SYMATTR Value 499
SYMBOL res 1152 144 R90
WINDOW 0 -26 54 VBottom 2
WINDOW 3 -28 55 VTop 2
SYMATTR InstName RG2
SYMATTR Value 499
SYMBOL res 1392 -128 R90
WINDOW 0 0 56 VBottom 2
WINDOW 3 36 57 VTop 2
SYMATTR InstName RF2
SYMATTR Value 499
SYMBOL cap 1376 64 R90
WINDOW 0 0 32 VBottom 2
WINDOW 3 32 32 VTop 2
SYMATTR InstName C2
SYMATTR Value 0.1µ
SYMBOL ADA4938 1232 208 R0
SYMATTR InstName U1
TEXT 880 432 Left 2 !.tran 100n
