Version 4
SHEET 1 1496 700
WIRE -144 -480 -144 -560
WIRE 432 -480 432 -560
WIRE -640 -288 -816 -288
WIRE 656 -240 544 -240
WIRE 704 -240 656 -240
WIRE -816 -208 -816 -288
WIRE -640 -192 -640 -288
WIRE -560 -192 -640 -192
WIRE -1696 -112 -1696 -160
WIRE -1552 -112 -1552 -160
WIRE -1504 -112 -1504 -160
WIRE -1504 -112 -1552 -112
WIRE -1408 -112 -1408 -160
WIRE -560 -112 -640 -112
WIRE -1696 -80 -1696 -112
WIRE -1552 -80 -1552 -112
WIRE -1408 -80 -1408 -112
WIRE 704 -64 544 -64
WIRE -816 -16 -816 -128
WIRE -640 -16 -640 -112
WIRE -640 -16 -816 -16
WIRE 704 -16 704 -64
WIRE -1696 32 -1696 0
WIRE -1552 32 -1552 0
WIRE -1552 32 -1696 32
WIRE -1408 32 -1408 0
WIRE -1408 32 -1552 32
WIRE -1696 64 -1696 32
WIRE 704 144 704 64
WIRE -192 256 -192 176
WIRE -144 256 -144 176
WIRE 128 272 128 176
FLAG 704 144 0
FLAG -1696 64 0
FLAG -1696 -112 VS_N
FLAG -1408 -112 VDD
FLAG 656 -240 Vout
FLAG 432 -560 VDD
FLAG -144 -560 VS_P
FLAG -144 256 VS_N
FLAG 128 272 0
FLAG -192 256 PDB
FLAG -1504 -160 PDB
FLAG -1552 -160 VS_P
SYMBOL voltage -816 -112 R180
WINDOW 123 24 124 Left 2
WINDOW 39 0 0 Left 0
SYMATTR Value2 AC 1
SYMATTR InstName V4
SYMATTR Value SINE(0 1.8189 100k)
SYMBOL voltage 704 -32 R0
WINDOW 123 0 0 Left 0
WINDOW 39 0 0 Left 0
SYMATTR InstName V2
SYMATTR Value PULSE(0 1.8 66.6n .2n .2n 5n 66.6n)
SYMBOL voltage -1696 -96 R0
WINDOW 123 0 0 Left 0
WINDOW 39 0 0 Left 0
SYMATTR InstName V3
SYMATTR Value -2
SYMBOL voltage -1552 -96 R0
WINDOW 123 0 0 Left 0
WINDOW 39 0 0 Left 0
SYMATTR InstName V1
SYMATTR Value 6.5
SYMBOL voltage -1408 -96 R0
WINDOW 123 0 0 Left 0
WINDOW 39 0 0 Left 0
SYMATTR InstName V5
SYMATTR Value 5
SYMBOL ADAQ23875 -192 -176 R0
SYMATTR InstName U1
TEXT -1776 -376 Left 2 ;Simulation Settings:
TEXT -1760 -336 Left 2 !.noise V(Vout) V1 dec 500 100 10G
TEXT -1760 -272 Left 2 !;.tran 10u
TEXT -1760 -304 Left 2 !;.ac dec 100 100 10G
TEXT -1776 -216 Left 2 ;Power Supplies:
RECTANGLE Normal -1200 112 -1808 -400 2
