Version 4
SHEET 1 1496 700
WIRE -144 -480 -144 -560
WIRE 432 -480 432 -560
WIRE -560 -336 -640 -336
WIRE -688 -288 -816 -288
WIRE -560 -288 -688 -288
WIRE -688 -240 -688 -288
WIRE -560 -240 -688 -240
WIRE 656 -240 544 -240
WIRE 704 -240 656 -240
WIRE -816 -208 -816 -288
WIRE -1488 -112 -1488 -160
WIRE -1344 -112 -1344 -160
WIRE -1200 -112 -1200 -160
WIRE -1488 -80 -1488 -112
WIRE -1344 -80 -1344 -112
WIRE -1200 -80 -1200 -112
WIRE -560 -64 -688 -64
WIRE 704 -64 544 -64
WIRE -816 -16 -816 -128
WIRE -688 -16 -688 -64
WIRE -688 -16 -816 -16
WIRE -560 -16 -688 -16
WIRE 704 -16 704 -64
WIRE -1488 32 -1488 0
WIRE -1344 32 -1344 0
WIRE -1344 32 -1488 32
WIRE -1200 32 -1200 0
WIRE -1200 32 -1344 32
WIRE -560 32 -640 32
WIRE -1488 64 -1488 32
WIRE 704 144 704 64
WIRE -192 256 -192 176
WIRE -144 256 -144 176
WIRE 128 272 128 176
FLAG 704 144 0
FLAG -1488 64 0
FLAG -1488 -112 VS_N
FLAG -1344 -112 VS_P
FLAG -1200 -112 VDD
FLAG 656 -240 Vout
FLAG 432 -560 VDD
FLAG -192 256 VS_P
FLAG -144 -560 VS_P
FLAG -144 256 VS_N
FLAG 128 272 0
SYMBOL voltage -816 -112 R180
WINDOW 123 24 124 Left 2
WINDOW 39 0 0 Left 0
SYMATTR Value2 AC 1
SYMATTR InstName V4
SYMATTR Value SINE(0 1.8189 100k)
SYMBOL voltage 704 -32 R0
WINDOW 123 0 0 Left 0
WINDOW 39 0 0 Left 0
SYMATTR InstName V2
SYMATTR Value PULSE(0 1.8 66.6n .2n .2n 5n 66.6n)
SYMBOL voltage -1488 -96 R0
WINDOW 123 0 0 Left 0
WINDOW 39 0 0 Left 0
SYMATTR InstName V3
SYMATTR Value -2
SYMBOL voltage -1344 -96 R0
WINDOW 123 0 0 Left 0
WINDOW 39 0 0 Left 0
SYMATTR InstName V1
SYMATTR Value 6.5
SYMBOL voltage -1200 -96 R0
WINDOW 123 0 0 Left 0
WINDOW 39 0 0 Left 0
SYMATTR InstName V5
SYMATTR Value 5
SYMBOL ADAQ23878 -192 -176 R0
SYMATTR InstName U2
TEXT -1568 -376 Left 2 ;Simulation Settings:
TEXT -1552 -336 Left 2 !.noise V(Vout) V1 dec 500 100 10G
TEXT -1552 -272 Left 2 !;.tran 10u
TEXT -1552 -304 Left 2 !;.ac dec 100 100 10G
TEXT -1568 -216 Left 2 ;Power Supplies:
RECTANGLE Normal -1104 128 -1600 -400 2
