Version 4
SHEET 1 2660 700
WIRE -1216 -608 -1216 -656
WIRE -1072 -608 -1072 -656
WIRE -928 -608 -928 -656
WIRE -784 -608 -784 -656
WIRE -1216 -576 -1216 -608
WIRE -1072 -576 -1072 -608
WIRE -928 -576 -928 -608
WIRE -784 -576 -784 -608
WIRE 96 -544 96 -624
WIRE 256 -544 256 -624
WIRE 592 -544 592 -624
WIRE 704 -544 704 -624
WIRE -1216 -464 -1216 -496
WIRE -1072 -464 -1072 -496
WIRE -1072 -464 -1216 -464
WIRE -928 -464 -928 -496
WIRE -928 -464 -1072 -464
WIRE -784 -464 -784 -496
WIRE -784 -464 -928 -464
WIRE -1216 -432 -1216 -464
WIRE -368 -432 -448 -432
WIRE -368 -336 -464 -336
WIRE -544 -272 -672 -272
WIRE -464 -272 -464 -336
WIRE -368 -272 -464 -272
WIRE -672 -256 -672 -272
WIRE -544 -208 -544 -272
WIRE -368 -208 -544 -208
WIRE 1024 -144 912 -144
WIRE 1072 -144 1024 -144
WIRE -672 -112 -672 -176
WIRE -672 -112 -960 -112
WIRE -960 -80 -960 -112
WIRE -672 -64 -672 -112
WIRE 1072 -64 912 -64
WIRE 1072 -16 1072 -64
WIRE -368 0 -544 0
WIRE -672 64 -672 16
WIRE -544 64 -544 0
WIRE -544 64 -672 64
WIRE -368 64 -464 64
WIRE -464 128 -464 64
WIRE -368 128 -464 128
WIRE 1072 144 1072 64
WIRE -16 336 -16 256
WIRE 96 336 96 256
WIRE 352 336 352 256
WIRE 464 336 464 256
WIRE 224 352 224 256
WIRE -208 368 -208 256
FLAG 1072 144 0
FLAG -1216 -432 0
FLAG -1216 -608 VS_N
FLAG -1072 -608 VS_P
FLAG -928 -608 VDD
FLAG 1024 -144 Vout
FLAG 704 -624 VDD
FLAG -16 336 VS_P
FLAG 96 -624 VS_P
FLAG 96 336 VS_N
FLAG 224 352 0
FLAG -784 -608 REF
FLAG 256 -624 REF
FLAG -208 368 VCMO
FLAG -960 -80 0
FLAG -448 -432 VS_P
SYMBOL voltage -672 -272 R0
WINDOW 123 -65 104 Left 2
WINDOW 39 0 0 Left 0
WINDOW 0 -46 4 Left 2
WINDOW 3 -250 52 Left 2
SYMATTR Value2 AC 1
SYMATTR InstName V4
SYMATTR Value SINE(0 -1.25 100k)
SYMBOL voltage 1072 -32 R0
WINDOW 123 0 0 Left 0
WINDOW 39 0 0 Left 0
SYMATTR InstName V2
SYMATTR Value PULSE(0 1.8 0 .2n .2n 10n 500n)
SYMBOL voltage -1216 -592 R0
WINDOW 123 0 0 Left 0
WINDOW 39 0 0 Left 0
SYMATTR InstName V3
SYMATTR Value 0
SYMBOL voltage -1072 -592 R0
WINDOW 123 0 0 Left 0
WINDOW 39 0 0 Left 0
SYMATTR InstName V1
SYMATTR Value 5.5
SYMBOL voltage -928 -592 R0
WINDOW 123 0 0 Left 0
WINDOW 39 0 0 Left 0
SYMATTR InstName V5
SYMATTR Value 1.8
SYMBOL voltage -784 -592 R0
WINDOW 123 0 0 Left 0
WINDOW 39 0 0 Left 0
SYMATTR InstName V6
SYMATTR Value 5
SYMBOL voltage -672 32 R180
WINDOW 123 19 -10 Left 2
WINDOW 39 0 0 Left 0
WINDOW 0 34 82 Left 2
WINDOW 3 44 50 Left 2
SYMATTR Value2 AC 1
SYMATTR InstName V7
SYMATTR Value SINE(0 1.25 100k)
SYMBOL ADAQ4003 0 -128 R0
SYMATTR InstName U1
TEXT -1296 -880 Left 2 ;Simulation Settings:
TEXT -1280 -840 Left 2 !;noise V(Vout) V1 dec 500 100 10G
TEXT -1280 -776 Left 2 !.tran 20u
TEXT -1280 -808 Left 2 !;ac dec 100 100 10G
TEXT -1296 -712 Left 2 ;Power Supplies:
RECTANGLE Normal -720 -400 -1312 -912 2
