Version 4
SHEET 1 880 680
WIRE 240 -208 160 -208
WIRE 320 -208 240 -208
WIRE 352 -208 320 -208
WIRE 352 -192 352 -208
WIRE 160 -160 160 -208
WIRE 240 -160 240 -208
WIRE 320 -160 320 -208
WIRE 160 -48 160 -80
WIRE 240 -48 240 -80
WIRE 320 -48 320 -80
WIRE 160 -16 160 -48
WIRE 240 -16 240 -48
WIRE 320 -16 320 -48
WIRE 48 32 -160 32
WIRE 80 32 48 32
WIRE 48 96 -64 96
WIRE 80 96 48 96
WIRE 416 112 384 112
WIRE 528 112 416 112
WIRE -160 128 -160 32
WIRE -64 128 -64 96
WIRE 528 128 528 112
WIRE 80 160 48 160
WIRE 416 208 384 208
WIRE 464 208 416 208
WIRE -160 224 -160 208
WIRE -64 224 -64 208
WIRE 48 224 48 160
WIRE 80 224 48 224
WIRE 464 224 464 208
WIRE 528 224 528 208
WIRE 48 240 48 224
WIRE 48 304 16 304
WIRE 80 304 48 304
WIRE 464 320 464 304
WIRE 16 336 16 304
WIRE 240 368 240 352
WIRE 320 368 320 352
WIRE 320 368 240 368
WIRE 240 384 240 368
WIRE 16 448 16 416
WIRE 96 448 16 448
WIRE 160 448 160 352
WIRE 160 448 96 448
WIRE 160 464 160 448
WIRE 160 560 160 544
FLAG 464 320 0
FLAG 416 208 _Q
FLAG 528 224 0
FLAG 416 112 Q
FLAG 240 384 0
FLAG 48 240 0
FLAG -160 224 0
FLAG 48 32 VP
FLAG -64 224 0
FLAG 48 96 VN
FLAG 160 560 0
FLAG 96 448 VEE
FLAG 48 304 HYS
FLAG 160 -48 VCC
FLAG 240 -48 LE
FLAG 320 -48 _LE
FLAG 352 -192 0
SYMBOL res 512 112 R0
SYMATTR InstName R1
SYMATTR Value 50
SYMBOL res 448 208 R0
SYMATTR InstName R2
SYMATTR Value 50
SYMBOL voltage -160 112 R0
WINDOW 3 -193 -104 Left 2
SYMATTR Value PWL(0 1.4 300p 1.4 +25p 1.7)
SYMATTR InstName V1
SYMBOL voltage -64 112 R0
SYMATTR InstName V2
SYMATTR Value 1.5
SYMBOL res 0 320 R0
SYMATTR InstName R3
SYMATTR Value 1k
SYMBOL voltage 160 448 R0
SYMATTR InstName V3
SYMATTR Value -5
SYMBOL voltage 160 -64 M180
WINDOW 0 24 96 Left 2
WINDOW 3 24 16 Left 2
SYMATTR InstName V4
SYMATTR Value 5
SYMBOL voltage 320 -64 M180
WINDOW 0 24 96 Left 2
WINDOW 3 24 16 Left 2
SYMATTR InstName V5
SYMATTR Value 0
SYMBOL voltage 240 -64 M180
WINDOW 0 24 96 Left 2
WINDOW 3 24 16 Left 2
WINDOW 123 0 0 Left 0
WINDOW 39 0 0 Left 0
SYMATTR InstName V6
SYMATTR Value 0.4
SYMBOL ADCMP580 240 160 R0
SYMATTR InstName U1
TEXT -168 536 Left 2 !.tran 1n
