Version 4
SHEET 1 880 680
WIRE 208 64 -176 64
WIRE -176 96 -176 64
WIRE 208 96 208 64
WIRE 96 160 -64 160
WIRE 464 176 320 176
WIRE -176 192 -176 176
WIRE 464 192 464 176
WIRE 464 288 464 272
WIRE -64 336 -64 160
WIRE 208 336 208 304
WIRE -64 432 -64 416
FLAG -176 192 0
FLAG -64 432 0
FLAG 208 336 0
FLAG 464 288 0
SYMBOL voltage -176 80 R0
WINDOW 3 26 96 Left 2
WINDOW 123 0 0 Left 0
WINDOW 39 0 0 Left 0
SYMATTR Value 2.25
SYMATTR InstName V1
SYMBOL voltage -64 320 R0
WINDOW 123 0 0 Left 2
WINDOW 39 0 0 Left 2
SYMATTR InstName V2
SYMATTR Value PULSE(0 1 0 .5m .5m 0 1m)
SYMBOL res 448 176 R0
SYMATTR InstName R1
SYMATTR Value 10K
SYMBOL ADCMP356 192 224 R0
WINDOW 3 39 97 Left 2
SYMATTR InstName U1
TEXT 424 368 Left 2 !.tran 3m
