Version 4
SHEET 1 2172 1360
WIRE 256 -448 208 -448
WIRE 400 -448 336 -448
WIRE 256 -336 208 -336
WIRE 400 -336 400 -448
WIRE 400 -336 320 -336
WIRE 400 -240 400 -336
WIRE 128 -176 96 -176
WIRE 272 -176 208 -176
WIRE 32 -112 16 -112
WIRE 272 -112 112 -112
WIRE -48 -48 -64 -48
WIRE 272 -48 32 -48
WIRE -128 16 -144 16
WIRE 272 16 -48 16
WIRE 640 48 528 48
WIRE 720 48 640 48
WIRE 128 80 96 80
WIRE 272 80 208 80
WIRE 640 80 640 48
WIRE 720 96 720 48
WIRE 32 144 16 144
WIRE 272 144 112 144
WIRE 640 192 640 160
WIRE 720 192 720 160
WIRE -48 208 -64 208
WIRE 272 208 32 208
WIRE -128 272 -144 272
WIRE 272 272 -48 272
WIRE 128 336 80 336
WIRE 272 336 208 336
WIRE 0 400 -16 400
WIRE 272 400 80 400
WIRE -96 464 -112 464
WIRE 272 464 -16 464
WIRE 128 528 80 528
WIRE 272 528 208 528
WIRE 640 560 528 560
WIRE 720 560 640 560
WIRE 0 592 -64 592
WIRE 272 592 80 592
WIRE 640 592 640 560
WIRE 720 608 720 560
WIRE 128 656 80 656
WIRE 272 656 208 656
WIRE 640 704 640 672
WIRE 720 704 720 672
WIRE 0 720 -16 720
WIRE 272 720 80 720
WIRE -96 784 -112 784
WIRE 272 784 -16 784
WIRE 128 848 96 848
WIRE 272 848 208 848
WIRE 656 848 528 848
WIRE 656 896 656 848
WIRE 16 912 0 912
WIRE 272 912 96 912
WIRE -80 976 -96 976
WIRE 272 976 0 976
WIRE 656 1008 656 976
WIRE 464 1072 464 1040
WIRE 224 1120 176 1120
WIRE 336 1120 336 1040
WIRE 336 1120 288 1120
WIRE 224 1232 176 1232
WIRE 336 1232 336 1120
WIRE 336 1232 304 1232
FLAG 208 -448 0
FLAG 208 -336 0
FLAG 96 -176 0
FLAG 16 -112 0
FLAG -64 -48 0
FLAG -144 16 0
FLAG 96 80 0
FLAG 16 144 0
FLAG -64 208 0
FLAG -144 272 0
FLAG 80 336 0
FLAG -16 400 0
FLAG -112 464 0
FLAG 176 1232 0
FLAG 176 1120 0
FLAG 656 1008 0
FLAG 640 192 0
FLAG 720 192 0
FLAG 464 1072 0
FLAG -64 592 0
FLAG 80 656 0
FLAG -16 720 0
FLAG -112 784 0
FLAG 80 528 0
FLAG 96 848 0
FLAG 0 912 0
FLAG -96 976 0
FLAG 640 704 0
FLAG 720 704 0
SYMBOL voltage 224 -176 R90
WINDOW 0 -32 56 VBottom 2
WINDOW 3 32 56 VTop 2
WINDOW 123 0 0 Left 0
WINDOW 39 0 0 Left 0
SYMATTR InstName V1
SYMATTR Value 1
SYMBOL voltage 128 -112 R90
WINDOW 0 -32 56 VBottom 2
WINDOW 3 32 56 VTop 2
WINDOW 123 0 0 Left 0
WINDOW 39 0 0 Left 0
SYMATTR InstName V2
SYMATTR Value 2
SYMBOL voltage 48 -48 R90
WINDOW 0 -32 56 VBottom 2
WINDOW 3 32 56 VTop 2
WINDOW 123 0 0 Left 0
WINDOW 39 0 0 Left 0
SYMATTR InstName V3
SYMATTR Value 3
SYMBOL voltage -32 16 R90
WINDOW 0 -32 56 VBottom 2
WINDOW 3 32 56 VTop 2
WINDOW 123 0 0 Left 0
WINDOW 39 0 0 Left 0
SYMATTR InstName V4
SYMATTR Value 4
SYMBOL voltage 224 80 R90
WINDOW 0 -32 56 VBottom 2
WINDOW 3 32 56 VTop 2
WINDOW 123 0 0 Left 0
WINDOW 39 0 0 Left 0
SYMATTR InstName V5
SYMATTR Value 5
SYMBOL voltage 128 144 R90
WINDOW 0 -32 56 VBottom 2
WINDOW 3 32 56 VTop 2
WINDOW 123 0 0 Left 0
WINDOW 39 0 0 Left 0
SYMATTR InstName V6
SYMATTR Value 6
SYMBOL voltage 48 208 R90
WINDOW 0 -32 56 VBottom 2
WINDOW 3 32 56 VTop 2
WINDOW 123 0 0 Left 0
WINDOW 39 0 0 Left 0
SYMATTR InstName V7
SYMATTR Value 7
SYMBOL voltage -32 272 R90
WINDOW 0 -32 56 VBottom 2
WINDOW 3 32 56 VTop 2
WINDOW 123 0 0 Left 0
WINDOW 39 0 0 Left 0
SYMATTR InstName V8
SYMATTR Value 8
SYMBOL voltage 224 336 R90
WINDOW 0 -32 56 VBottom 2
WINDOW 3 32 56 VTop 2
WINDOW 123 0 0 Left 0
WINDOW 39 0 0 Left 0
SYMATTR InstName V9
SYMATTR Value 9
SYMBOL voltage 96 400 R90
WINDOW 0 -32 56 VBottom 2
WINDOW 3 32 56 VTop 2
WINDOW 123 0 0 Left 0
WINDOW 39 0 0 Left 0
SYMATTR InstName V10
SYMATTR Value 10
SYMBOL voltage 0 464 R90
WINDOW 0 -32 56 VBottom 2
WINDOW 3 32 56 VTop 2
WINDOW 123 0 0 Left 0
WINDOW 39 0 0 Left 0
SYMATTR InstName V11
SYMATTR Value 11
SYMBOL voltage 352 -448 R90
WINDOW 0 -32 56 VBottom 2
WINDOW 3 32 56 VTop 2
WINDOW 123 0 0 Left 0
WINDOW 39 0 0 Left 0
SYMATTR InstName V18
SYMATTR Value 15
SYMBOL voltage 320 1232 R90
WINDOW 0 -32 56 VBottom 2
WINDOW 3 32 56 VTop 2
WINDOW 123 0 0 Left 0
WINDOW 39 0 0 Left 0
SYMATTR InstName V17
SYMATTR Value -15
SYMBOL voltage 656 880 R0
WINDOW 0 58 2 Top 2
WINDOW 3 213 128 Bottom 2
WINDOW 123 0 0 Left 0
WINDOW 39 0 0 Left 0
SYMATTR InstName V19
SYMATTR Value PULSE(0 5 0 10n 10n 10u 20u)
SYMBOL res 624 64 R0
SYMATTR InstName R1
SYMATTR Value 301
SYMBOL cap 320 -352 R90
WINDOW 0 0 32 VBottom 2
WINDOW 3 32 32 VTop 2
SYMATTR InstName C1
SYMATTR Value 0.1µ
SYMBOL cap 288 1104 R90
WINDOW 0 0 32 VBottom 2
WINDOW 3 32 32 VTop 2
SYMATTR InstName C2
SYMATTR Value 0.1µ
SYMBOL cap 704 96 R0
SYMATTR InstName C3
SYMATTR Value 36p
SYMBOL voltage 224 656 R90
WINDOW 0 -32 56 VBottom 2
WINDOW 3 32 56 VTop 2
WINDOW 123 0 0 Left 0
WINDOW 39 0 0 Left 0
SYMATTR InstName V14
SYMATTR Value 14
SYMBOL voltage 96 720 R90
WINDOW 0 -32 56 VBottom 2
WINDOW 3 32 56 VTop 2
WINDOW 123 0 0 Left 0
WINDOW 39 0 0 Left 0
SYMATTR InstName V15
SYMATTR Value 12
SYMBOL voltage 0 784 R90
WINDOW 0 -32 56 VBottom 2
WINDOW 3 32 56 VTop 2
WINDOW 123 0 0 Left 0
WINDOW 39 0 0 Left 0
SYMATTR InstName V16
SYMATTR Value 8
SYMBOL voltage 96 592 R90
WINDOW 0 -32 56 VBottom 2
WINDOW 3 32 56 VTop 2
WINDOW 123 0 0 Left 0
WINDOW 39 0 0 Left 0
SYMATTR InstName V13
SYMATTR Value 13
SYMBOL voltage 224 528 R90
WINDOW 0 -32 56 VBottom 2
WINDOW 3 32 56 VTop 2
WINDOW 123 0 0 Left 0
WINDOW 39 0 0 Left 0
SYMATTR InstName V12
SYMATTR Value 12
SYMBOL voltage 224 848 R90
WINDOW 0 -32 56 VBottom 2
WINDOW 3 32 56 VTop 2
WINDOW 123 0 0 Left 0
WINDOW 39 0 0 Left 0
SYMATTR InstName V20
SYMATTR Value 0
SYMBOL voltage 112 912 R90
WINDOW 0 -32 56 VBottom 2
WINDOW 3 32 56 VTop 2
WINDOW 123 0 0 Left 0
WINDOW 39 0 0 Left 0
SYMATTR InstName V21
SYMATTR Value 0
SYMBOL voltage 16 976 R90
WINDOW 0 -32 56 VBottom 2
WINDOW 3 32 56 VTop 2
WINDOW 123 0 0 Left 0
WINDOW 39 0 0 Left 0
SYMATTR InstName V22
SYMATTR Value 0
SYMBOL ADG1207 400 80 R0
SYMATTR InstName U1
SYMBOL res 624 576 R0
SYMATTR InstName R2
SYMATTR Value 301
SYMBOL cap 704 608 R0
SYMATTR InstName C4
SYMATTR Value 36p
TEXT 408 1144 Left 2 !.tran 100u
TEXT -592 -448 Left 2 ;Note:\nSwitch shown for a logic 0 input
