Version 4
SHEET 1 2844 1336
WIRE -800 -320 -800 -336
WIRE -1040 -256 -1056 -256
WIRE -928 -256 -960 -256
WIRE -896 -256 -928 -256
WIRE -672 -224 -704 -224
WIRE -640 -224 -672 -224
WIRE -544 -224 -640 -224
WIRE -1456 -192 -1456 -208
WIRE -1344 -192 -1344 -208
WIRE -1152 -192 -1184 -192
WIRE -928 -192 -1072 -192
WIRE -896 -192 -928 -192
WIRE -640 -192 -640 -224
WIRE -544 -192 -544 -224
WIRE -928 -128 -992 -128
WIRE -896 -128 -928 -128
WIRE -1456 -96 -1456 -112
WIRE -1344 -96 -1344 -112
WIRE -640 -96 -640 -112
WIRE -544 -96 -544 -128
WIRE -992 -80 -992 -128
WIRE -864 0 -864 -16
WIRE -736 0 -736 -16
WIRE -992 32 -992 0
FLAG -1456 -96 0
FLAG -1344 -96 0
FLAG -1344 -208 +V
FLAG -1456 -208 -V
FLAG -992 32 0
FLAG -1056 -256 0
FLAG -1184 -192 0
FLAG -800 -336 +V
FLAG -736 0 0
FLAG -864 0 -V
FLAG -640 -96 0
FLAG -544 -96 0
FLAG -928 -256 SA
FLAG -928 -192 SB
FLAG -928 -128 IN
FLAG -672 -224 D
SYMBOL voltage -1344 -208 R0
WINDOW 123 0 0 Left 0
WINDOW 39 0 0 Left 0
SYMATTR InstName V1
SYMATTR Value 15
SYMBOL voltage -1456 -208 R0
WINDOW 123 0 0 Left 0
WINDOW 39 0 0 Left 0
SYMATTR InstName V2
SYMATTR Value -15
SYMBOL voltage -992 -96 M0
WINDOW 123 24 138 Left 2
WINDOW 39 24 117 Left 2
SYMATTR Value PULSE(0 5 0 20n 20n 10u 20u)
SYMATTR InstName V4
SYMBOL voltage -944 -256 R90
WINDOW 0 -32 56 VBottom 2
WINDOW 3 32 56 VTop 2
WINDOW 123 0 0 Left 0
WINDOW 39 0 0 Left 0
SYMATTR InstName V5
SYMATTR Value 12
SYMBOL voltage -1056 -192 R90
WINDOW 0 -32 56 VBottom 2
WINDOW 3 32 56 VTop 2
WINDOW 123 0 0 Left 0
WINDOW 39 0 0 Left 0
SYMATTR InstName V6
SYMATTR Value 0
SYMBOL res -656 -208 R0
SYMATTR InstName R1
SYMATTR Value 300
SYMBOL cap -560 -192 R0
SYMATTR InstName C1
SYMATTR Value 35p
SYMBOL Switches\\ADG1334 -800 -176 R0
SYMATTR InstName U1
TEXT -616 16 Left 2 !.tran 120u
TEXT -1448 -464 Left 2 ;Note:\nSwitch shown for a logic 1 input\nOnly one channel modeled\nRon modeled at ±15V\nCrosstalk at -90 dB at 1MHz
