Version 4
SHEET 1 2844 1336
WIRE -512 -112 -512 -128
WIRE -400 -112 -400 -128
WIRE 0 -96 0 -112
WIRE 144 -32 96 -32
WIRE 224 -32 144 -32
WIRE 320 -32 304 -32
WIRE -512 -16 -512 -32
WIRE -400 -16 -400 -32
WIRE -272 0 -304 0
WIRE -144 0 -192 0
WIRE -96 0 -144 0
WIRE 144 32 96 32
WIRE 176 32 144 32
WIRE 320 32 256 32
WIRE -416 96 -432 96
WIRE -144 96 -336 96
WIRE -96 96 -144 96
WIRE -96 192 -112 192
WIRE -64 224 -64 208
WIRE 64 224 64 208
FLAG -512 -16 0
FLAG -400 -16 0
FLAG -400 -128 +V
FLAG -512 -128 -V
FLAG -304 0 0
FLAG -64 224 -V
FLAG 0 -112 +V
FLAG 64 224 0
FLAG -432 96 0
FLAG -112 192 0
FLAG 320 -32 0
FLAG 320 32 0
FLAG -144 0 D1
FLAG -144 96 IN1
FLAG 144 -32 S1B
FLAG 144 32 S1A
SYMBOL voltage -400 -128 R0
WINDOW 123 0 0 Left 0
WINDOW 39 0 0 Left 0
SYMATTR InstName V1
SYMATTR Value 8
SYMBOL voltage -512 -128 R0
WINDOW 123 0 0 Left 0
WINDOW 39 0 0 Left 0
SYMATTR InstName V2
SYMATTR Value -8
SYMBOL voltage -176 0 R90
WINDOW 0 -32 56 VBottom 2
WINDOW 3 32 56 VTop 2
SYMATTR InstName V3
SYMATTR Value sine(0 5 1K)
SYMBOL voltage -320 96 R90
WINDOW 0 -32 56 VBottom 2
WINDOW 3 32 56 VTop 2
SYMATTR InstName V4
SYMATTR Value pulse(0 3.3 0 1u 1u 5m 10m)
SYMBOL res 208 -16 R270
WINDOW 0 32 56 VTop 2
WINDOW 3 0 56 VBottom 2
SYMATTR InstName R1
SYMATTR Value 1K
SYMBOL res 160 48 R270
WINDOW 0 32 56 VTop 2
WINDOW 3 0 56 VBottom 2
SYMATTR InstName R2
SYMATTR Value 1K
SYMBOL ADG1634 0 48 R0
SYMATTR InstName U1
TEXT 176 192 Left 2 !.tran 30m
