Version 4
SHEET 1 2844 1336
WIRE -752 -368 -800 -368
WIRE -592 -336 -656 -336
WIRE -464 -336 -528 -336
WIRE -800 -320 -800 -368
WIRE -1040 -256 -1072 -256
WIRE -896 -256 -960 -256
WIRE -1552 -240 -1552 -256
WIRE -1440 -240 -1440 -256
WIRE -656 -224 -656 -336
WIRE -656 -224 -704 -224
WIRE -608 -224 -656 -224
WIRE -464 -224 -528 -224
WIRE -1152 -192 -1184 -192
WIRE -896 -192 -1072 -192
WIRE -1552 -144 -1552 -160
WIRE -1440 -144 -1440 -160
WIRE -896 -128 -960 -128
WIRE -624 -128 -704 -128
WIRE -624 -96 -624 -128
WIRE -960 -80 -960 -128
WIRE -736 0 -736 -16
WIRE -624 0 -624 -16
WIRE -1184 16 -1184 -192
WIRE -960 16 -960 0
WIRE -864 16 -864 -16
WIRE -832 16 -864 16
FLAG -1552 -144 0
FLAG -1440 -144 0
FLAG -1440 -256 +V
FLAG -1552 -256 -V
FLAG -1072 -256 0
FLAG -960 16 0
FLAG -464 -224 0
FLAG -752 -368 +V
FLAG -736 0 0
FLAG -832 16 -V
FLAG -624 0 0
FLAG -1184 16 0
FLAG -464 -336 0
SYMBOL voltage -1440 -256 R0
WINDOW 123 0 0 Left 0
WINDOW 39 0 0 Left 0
SYMATTR InstName V1
SYMATTR Value 5
SYMBOL voltage -1552 -256 R0
WINDOW 123 0 0 Left 0
WINDOW 39 0 0 Left 0
SYMATTR InstName V2
SYMATTR Value -8
SYMBOL voltage -960 -96 M0
WINDOW 123 0 0 Left 0
WINDOW 39 0 0 Left 0
SYMATTR InstName V4
SYMATTR Value PULSE(0 5 0 20n 20n 10u 20u)
SYMBOL res -624 -240 M90
WINDOW 0 0 56 VBottom 2
WINDOW 3 32 56 VTop 2
SYMATTR InstName R2
SYMATTR Value 300
SYMBOL voltage -944 -256 R90
WINDOW 123 0 0 Left 0
WINDOW 39 0 0 Left 0
WINDOW 0 47 41 VRight 2
WINDOW 3 -46 -22 VRight 2
SYMATTR InstName V5
SYMATTR Value 3
SYMBOL voltage -624 -112 R0
WINDOW 123 0 0 Left 0
WINDOW 39 0 0 Left 0
SYMATTR InstName V3
SYMATTR Value 5;PULSE(0 5 0 20n 20n 10u 20u)
SYMBOL voltage -1056 -192 R90
WINDOW 0 -32 56 VBottom 2
WINDOW 3 32 56 VTop 2
WINDOW 123 0 0 Left 0
WINDOW 39 0 0 Left 0
SYMATTR InstName V6
SYMATTR Value 0
SYMBOL cap -528 -352 R90
WINDOW 0 0 32 VBottom 2
WINDOW 3 32 32 VTop 2
SYMATTR InstName C1
SYMATTR Value 35p
SYMBOL Switches\\ADG1519 -800 -176 R0
SYMATTR InstName U1
TEXT -1592 8 Left 2 !.tran 0.0001
