Version 4
SHEET 1 2084 1424
WIRE 256 -320 208 -320
WIRE 400 -320 336 -320
WIRE 256 -208 208 -208
WIRE 400 -208 400 -320
WIRE 400 -208 320 -208
WIRE 400 -112 400 -208
WIRE 96 -48 64 -48
WIRE 240 -48 176 -48
WIRE 272 -48 240 -48
WIRE -32 16 -48 16
WIRE 240 16 48 16
WIRE 272 16 240 16
WIRE -144 80 -176 80
WIRE 240 80 -64 80
WIRE 272 80 240 80
WIRE 96 144 64 144
WIRE 240 144 176 144
WIRE 272 144 240 144
WIRE 576 176 528 176
WIRE 608 176 576 176
WIRE 688 176 608 176
WIRE 608 192 608 176
WIRE -32 208 -48 208
WIRE 240 208 48 208
WIRE 272 208 240 208
WIRE 688 208 688 176
WIRE -144 272 -176 272
WIRE 240 272 -64 272
WIRE 272 272 240 272
WIRE 608 288 608 272
WIRE 688 288 688 272
WIRE 80 336 64 336
WIRE 240 336 160 336
WIRE 272 336 240 336
WIRE -32 400 -48 400
WIRE 240 400 48 400
WIRE 272 400 240 400
WIRE -144 464 -176 464
WIRE 240 464 -64 464
WIRE 272 464 240 464
WIRE 80 528 64 528
WIRE 240 528 160 528
WIRE 272 528 240 528
WIRE -32 592 -48 592
WIRE 240 592 48 592
WIRE 272 592 240 592
WIRE -144 656 -176 656
WIRE 240 656 -64 656
WIRE 272 656 240 656
WIRE 560 688 528 688
WIRE 608 688 560 688
WIRE 688 688 608 688
WIRE 608 704 608 688
WIRE 80 720 64 720
WIRE 240 720 160 720
WIRE 272 720 240 720
WIRE 688 720 688 688
WIRE -32 784 -48 784
WIRE 240 784 48 784
WIRE 272 784 240 784
WIRE 608 800 608 784
WIRE 688 800 688 784
WIRE -144 848 -176 848
WIRE 240 848 -64 848
WIRE 272 848 240 848
WIRE 80 912 64 912
WIRE 240 912 160 912
WIRE 272 912 240 912
WIRE -32 976 -64 976
WIRE 256 976 48 976
WIRE 272 976 256 976
WIRE 560 976 528 976
WIRE 768 976 560 976
WIRE 896 976 848 976
WIRE -144 1040 -176 1040
WIRE 256 1040 -64 1040
WIRE 272 1040 256 1040
WIRE 160 1104 144 1104
WIRE 256 1104 240 1104
WIRE 272 1104 256 1104
WIRE 464 1200 464 1168
WIRE 224 1248 176 1248
WIRE 336 1248 336 1168
WIRE 336 1248 288 1248
WIRE 224 1360 176 1360
WIRE 336 1360 336 1248
WIRE 336 1360 304 1360
FLAG 208 -320 0
FLAG 208 -208 0
FLAG 64 -48 0
FLAG -48 16 0
FLAG -176 80 0
FLAG 64 144 0
FLAG -176 464 0
FLAG 64 528 0
FLAG 176 1360 0
FLAG 176 1248 0
FLAG 896 976 0
FLAG 464 1200 0
FLAG 608 288 0
FLAG 688 288 0
FLAG 608 800 0
FLAG 688 800 0
FLAG -48 208 0
FLAG -176 272 0
FLAG 64 336 0
FLAG -48 400 0
FLAG -48 592 0
FLAG -176 656 0
FLAG 64 720 0
FLAG -48 784 0
FLAG 144 1104 0
FLAG -176 848 0
FLAG 64 912 0
FLAG -64 976 0
FLAG -176 1040 0
FLAG 576 176 DA
FLAG 560 688 DB
FLAG 560 976 EN
FLAG 256 976 A0
FLAG 256 1040 A1
FLAG 256 1104 A2
FLAG 240 -48 S1A
FLAG 240 16 S2A
FLAG 240 80 S3A
FLAG 240 144 S4A
FLAG 240 208 S5A
FLAG 240 272 S6A
FLAG 240 336 S7A
FLAG 240 400 S8A
FLAG 240 464 S1B
FLAG 240 528 S2B
FLAG 240 592 S3B
FLAG 240 656 S4B
FLAG 240 720 S5B
FLAG 240 784 S6B
FLAG 240 848 S7B
FLAG 240 912 S8B
SYMBOL voltage 192 -48 R90
WINDOW 0 -32 56 VBottom 2
WINDOW 3 32 56 VTop 2
WINDOW 123 0 0 Left 0
WINDOW 39 0 0 Left 0
SYMATTR InstName V3
SYMATTR Value 1
SYMBOL voltage 64 16 R90
WINDOW 0 -32 56 VBottom 2
WINDOW 3 32 56 VTop 2
WINDOW 123 0 0 Left 0
WINDOW 39 0 0 Left 0
SYMATTR InstName V4
SYMATTR Value 2
SYMBOL voltage -48 80 R90
WINDOW 0 -32 56 VBottom 2
WINDOW 3 32 56 VTop 2
WINDOW 123 0 0 Left 0
WINDOW 39 0 0 Left 0
SYMATTR InstName V5
SYMATTR Value 3
SYMBOL voltage 192 144 R90
WINDOW 0 -32 56 VBottom 2
WINDOW 3 32 56 VTop 2
WINDOW 123 0 0 Left 0
WINDOW 39 0 0 Left 0
SYMATTR InstName V6
SYMATTR Value 4
SYMBOL voltage -48 464 R90
WINDOW 0 -32 56 VBottom 2
WINDOW 3 32 56 VTop 2
WINDOW 123 0 0 Left 0
WINDOW 39 0 0 Left 0
SYMATTR InstName V7
SYMATTR Value 0
SYMBOL voltage 176 528 R90
WINDOW 0 -32 56 VBottom 2
WINDOW 3 32 56 VTop 2
WINDOW 123 0 0 Left 0
WINDOW 39 0 0 Left 0
SYMATTR InstName V8
SYMATTR Value 5
SYMBOL voltage 352 -320 R90
WINDOW 0 -32 56 VBottom 2
WINDOW 3 32 56 VTop 2
WINDOW 123 0 0 Left 0
WINDOW 39 0 0 Left 0
SYMATTR InstName V12
SYMATTR Value 5
SYMBOL voltage 320 1360 R90
WINDOW 0 -32 56 VBottom 2
WINDOW 3 32 56 VTop 2
WINDOW 123 0 0 Left 0
WINDOW 39 0 0 Left 0
SYMATTR InstName V13
SYMATTR Value -5
SYMBOL voltage 752 976 R270
WINDOW 0 32 56 VTop 2
WINDOW 3 -48 101 VBottom 2
WINDOW 123 0 0 Left 0
WINDOW 39 0 0 Left 0
SYMATTR InstName V14
SYMATTR Value PULSE(0 5 0 10n 10n 10u 20u)
SYMBOL res 592 176 R0
SYMATTR InstName R1
SYMATTR Value 301
SYMBOL cap 320 -224 R90
WINDOW 0 0 32 VBottom 2
WINDOW 3 32 32 VTop 2
SYMATTR InstName C1
SYMATTR Value 0.1µ
SYMBOL cap 288 1232 R90
WINDOW 0 0 32 VBottom 2
WINDOW 3 32 32 VTop 2
SYMATTR InstName C2
SYMATTR Value 0.1µ
SYMBOL cap 672 208 R0
SYMATTR InstName C3
SYMATTR Value 36p
SYMBOL res 592 688 R0
SYMATTR InstName R2
SYMATTR Value 301
SYMBOL cap 672 720 R0
SYMATTR InstName C4
SYMATTR Value 36p
SYMBOL voltage 64 208 R90
WINDOW 0 -32 56 VBottom 2
WINDOW 3 32 56 VTop 2
WINDOW 123 0 0 Left 0
WINDOW 39 0 0 Left 0
SYMATTR InstName V1
SYMATTR Value 1
SYMBOL voltage -48 272 R90
WINDOW 0 -32 56 VBottom 2
WINDOW 3 32 56 VTop 2
WINDOW 123 0 0 Left 0
WINDOW 39 0 0 Left 0
SYMATTR InstName V2
SYMATTR Value 2
SYMBOL voltage 176 336 R90
WINDOW 0 -32 56 VBottom 2
WINDOW 3 32 56 VTop 2
WINDOW 123 0 0 Left 0
WINDOW 39 0 0 Left 0
SYMATTR InstName V9
SYMATTR Value 3
SYMBOL voltage 64 400 R90
WINDOW 0 -32 56 VBottom 2
WINDOW 3 32 56 VTop 2
WINDOW 123 0 0 Left 0
WINDOW 39 0 0 Left 0
SYMATTR InstName V10
SYMATTR Value 4
SYMBOL voltage 64 592 R90
WINDOW 0 -32 56 VBottom 2
WINDOW 3 32 56 VTop 2
WINDOW 123 0 0 Left 0
WINDOW 39 0 0 Left 0
SYMATTR InstName V11
SYMATTR Value 1
SYMBOL voltage -48 656 R90
WINDOW 0 -32 56 VBottom 2
WINDOW 3 32 56 VTop 2
WINDOW 123 0 0 Left 0
WINDOW 39 0 0 Left 0
SYMATTR InstName V15
SYMATTR Value 2
SYMBOL voltage 176 720 R90
WINDOW 0 -32 56 VBottom 2
WINDOW 3 32 56 VTop 2
WINDOW 123 0 0 Left 0
WINDOW 39 0 0 Left 0
SYMATTR InstName V16
SYMATTR Value 3
SYMBOL voltage 64 784 R90
WINDOW 0 -32 56 VBottom 2
WINDOW 3 32 56 VTop 2
WINDOW 123 0 0 Left 0
WINDOW 39 0 0 Left 0
SYMATTR InstName V17
SYMATTR Value 4
SYMBOL voltage 256 1104 R90
WINDOW 0 -32 56 VBottom 2
WINDOW 3 32 56 VTop 2
WINDOW 123 0 0 Left 0
WINDOW 39 0 0 Left 0
SYMATTR InstName V18
SYMATTR Value 0
SYMBOL voltage -48 848 R90
WINDOW 0 -32 56 VBottom 2
WINDOW 3 32 56 VTop 2
WINDOW 123 0 0 Left 0
WINDOW 39 0 0 Left 0
SYMATTR InstName V20
SYMATTR Value 1
SYMBOL voltage 176 912 R90
WINDOW 0 -32 56 VBottom 2
WINDOW 3 32 56 VTop 2
WINDOW 123 0 0 Left 0
WINDOW 39 0 0 Left 0
SYMATTR InstName V21
SYMATTR Value 2
SYMBOL voltage 64 976 R90
WINDOW 0 -32 56 VBottom 2
WINDOW 3 32 56 VTop 2
WINDOW 123 0 0 Left 0
WINDOW 39 0 0 Left 0
SYMATTR InstName V22
SYMATTR Value 3
SYMBOL voltage -48 1040 R90
WINDOW 0 -32 56 VBottom 2
WINDOW 3 32 56 VTop 2
WINDOW 123 0 0 Left 0
WINDOW 39 0 0 Left 0
SYMATTR InstName V23
SYMATTR Value 4
SYMBOL ADG1607 400 208 R0
SYMATTR InstName U1
TEXT -72 1216 Left 2 !.tran 100u
TEXT -440 -488 Left 2 ;Notes:\nSwitch shown for a logic 0 input\nCharge injection not included
