Version 4
SHEET 1 2844 1336
WIRE -800 -320 -800 -352
WIRE -1488 -256 -1488 -272
WIRE -1376 -256 -1376 -272
WIRE -928 -256 -960 -256
WIRE -896 -256 -928 -256
WIRE -672 -224 -704 -224
WIRE -640 -224 -672 -224
WIRE -560 -224 -640 -224
WIRE -928 -192 -1040 -192
WIRE -896 -192 -928 -192
WIRE -640 -192 -640 -224
WIRE -560 -176 -560 -224
WIRE -1488 -160 -1488 -176
WIRE -1376 -160 -1376 -176
WIRE -1200 -128 -1248 -128
WIRE -928 -128 -1120 -128
WIRE -896 -128 -928 -128
WIRE -640 -96 -640 -112
WIRE -560 -96 -560 -112
WIRE -896 -64 -928 -64
WIRE -864 16 -864 -16
WIRE -736 16 -736 -16
FLAG -1376 -160 0
FLAG -1488 -160 0
FLAG -1488 -272 +V
FLAG -1376 -272 -V
FLAG -1248 -128 0
FLAG -1040 -256 0
FLAG -1120 -192 0
FLAG -800 -352 +V
FLAG -736 16 0
FLAG -864 16 -V
FLAG -640 -96 0
FLAG -560 -96 0
FLAG -928 -64 0
FLAG -928 -256 vSA
FLAG -928 -192 vSB
FLAG -928 -128 vIN
FLAG -672 -224 vD
SYMBOL voltage -1488 -272 R0
WINDOW 123 0 0 Left 0
WINDOW 39 0 0 Left 0
SYMATTR InstName V1
SYMATTR Value 5
SYMBOL voltage -1376 -272 R0
WINDOW 123 0 0 Left 0
WINDOW 39 0 0 Left 0
SYMATTR InstName V2
SYMATTR Value -8
SYMBOL voltage -1104 -128 M270
WINDOW 3 -45 209 VLeft 2
WINDOW 123 0 0 Left 0
WINDOW 39 0 0 Left 0
WINDOW 0 44 74 VLeft 2
SYMATTR Value PULSE(0 1.8 0 20n 20n 10u 20u)
SYMATTR InstName V4
SYMBOL voltage -944 -256 R90
WINDOW 0 -32 56 VBottom 2
WINDOW 3 32 56 VTop 2
WINDOW 123 0 0 Left 0
WINDOW 39 0 0 Left 0
SYMATTR InstName V5
SYMATTR Value 2.5
SYMBOL voltage -1024 -192 R90
WINDOW 0 -32 56 VBottom 2
WINDOW 3 32 56 VTop 2
WINDOW 123 0 0 Left 0
WINDOW 39 0 0 Left 0
SYMATTR InstName V6
SYMATTR Value -8
SYMBOL res -656 -208 R0
SYMATTR InstName R1
SYMATTR Value 301
SYMBOL cap -576 -176 R0
SYMATTR InstName C1
SYMATTR Value 36p
SYMBOL ADG1534 -800 -176 R0
SYMATTR InstName U1
TEXT -1496 -72 Left 2 !.tran 120u
TEXT -1496 -480 Left 2 ;Notes:\nSwitch shown for a logic 0 input\nQinj not included in the model\nOnly one channel is modeled
