Version 4
SHEET 1 2844 1336
WIRE -800 -320 -800 -352
WIRE -1040 -256 -1056 -256
WIRE -928 -256 -960 -256
WIRE -896 -256 -928 -256
WIRE -672 -224 -704 -224
WIRE -608 -224 -672 -224
WIRE -528 -224 -608 -224
WIRE -1136 -192 -1152 -192
WIRE -928 -192 -1056 -192
WIRE -896 -192 -928 -192
WIRE -608 -192 -608 -224
WIRE -528 -176 -528 -224
WIRE -1376 -144 -1376 -160
WIRE -1280 -144 -1280 -160
WIRE -928 -128 -1072 -128
WIRE -896 -128 -928 -128
WIRE -672 -128 -704 -128
WIRE -672 -112 -672 -128
WIRE -608 -96 -608 -112
WIRE -528 -96 -528 -112
WIRE -1376 -48 -1376 -64
WIRE -1280 -48 -1280 -64
WIRE -1072 0 -1072 -128
WIRE -864 16 -864 -16
WIRE -736 16 -736 -16
FLAG -1280 -48 0
FLAG -1376 -48 0
FLAG -1376 -160 +V
FLAG -1280 -160 -V
FLAG -1072 80 0
FLAG -1056 -256 0
FLAG -1152 -192 0
FLAG -800 -352 +V
FLAG -736 16 0
FLAG -864 16 -V
FLAG -608 -96 0
FLAG -528 -96 0
FLAG -672 -112 0
FLAG -928 -256 vSA
FLAG -928 -192 vSB
FLAG -928 -128 vIN
FLAG -672 -224 vD
SYMBOL voltage -1376 -160 R0
WINDOW 123 0 0 Left 0
WINDOW 39 0 0 Left 0
SYMATTR InstName V1
SYMATTR Value 5
SYMBOL voltage -1280 -160 R0
WINDOW 123 0 0 Left 0
WINDOW 39 0 0 Left 0
SYMATTR InstName V2
SYMATTR Value -5
SYMBOL voltage -1072 -16 R0
WINDOW 3 33 91 Left 2
WINDOW 123 0 0 Left 0
WINDOW 39 0 0 Left 0
SYMATTR Value PULSE(0 3 0 10n 10n 10u 20u)
SYMATTR InstName V4
SYMBOL voltage -944 -256 R90
WINDOW 0 -32 56 VBottom 2
WINDOW 3 32 56 VTop 2
WINDOW 123 0 0 Left 0
WINDOW 39 0 0 Left 0
SYMATTR InstName V5
SYMATTR Value 2
SYMBOL voltage -1040 -192 R90
WINDOW 0 -32 56 VBottom 2
WINDOW 3 32 56 VTop 2
WINDOW 123 0 0 Left 0
WINDOW 39 0 0 Left 0
SYMATTR InstName V6
SYMATTR Value 0
SYMBOL res -624 -208 R0
SYMATTR InstName R1
SYMATTR Value 301
SYMBOL cap -544 -176 R0
SYMATTR InstName C1
SYMATTR Value 36p
SYMBOL ADG1634 -800 -176 R0
SYMATTR InstName U1
TEXT -688 24 Left 2 !.tran 120u
TEXT -1408 -552 Left 2 ;Notes:\nSwitch shown for a logic 0 input\nOnly one channel is modeled\nQinj is not modeled \nModeled at ±5V specification\n_EN is not available on the TSSOP package
