Version 4
SHEET 1 2172 1360
WIRE 544 -464 464 -464
WIRE 656 -464 608 -464
WIRE 192 -352 144 -352
WIRE 336 -352 272 -352
WIRE 464 -352 464 -464
WIRE 528 -352 464 -352
WIRE 656 -352 608 -352
WIRE 336 -240 336 -352
WIRE 464 -240 464 -352
WIRE 240 -176 208 -176
WIRE 272 -176 240 -176
WIRE 240 -112 128 -112
WIRE 272 -112 240 -112
WIRE 240 -48 48 -48
WIRE 272 -48 240 -48
WIRE 240 16 -32 16
WIRE 272 16 240 16
WIRE 560 48 528 48
WIRE 640 48 560 48
WIRE 720 48 640 48
WIRE 240 80 208 80
WIRE 272 80 240 80
WIRE 640 80 640 48
WIRE 720 96 720 48
WIRE 240 144 128 144
WIRE 272 144 240 144
WIRE 640 192 640 160
WIRE 720 192 720 160
WIRE 240 208 48 208
WIRE 272 208 240 208
WIRE 240 272 -32 272
WIRE 272 272 240 272
WIRE 240 336 208 336
WIRE 272 336 240 336
WIRE 240 400 128 400
WIRE 272 400 240 400
WIRE 240 464 48 464
WIRE 272 464 240 464
WIRE 240 528 -32 528
WIRE 272 528 240 528
WIRE 560 560 528 560
WIRE 640 560 560 560
WIRE 720 560 640 560
WIRE 240 592 208 592
WIRE 272 592 240 592
WIRE 640 592 640 560
WIRE 720 608 720 560
WIRE 240 656 128 656
WIRE 272 656 240 656
WIRE 640 704 640 672
WIRE 720 704 720 672
WIRE 240 720 48 720
WIRE 272 720 240 720
WIRE 240 784 -32 784
WIRE 272 784 240 784
WIRE 240 848 208 848
WIRE 272 848 240 848
WIRE 560 848 528 848
WIRE 656 848 560 848
WIRE 656 896 656 848
WIRE 240 912 128 912
WIRE 272 912 240 912
WIRE 240 976 48 976
WIRE 272 976 240 976
WIRE 656 1008 656 976
WIRE 464 1072 464 1040
WIRE 224 1120 176 1120
WIRE 336 1120 336 1040
WIRE 336 1120 288 1120
WIRE 224 1232 176 1232
WIRE 336 1232 336 1120
WIRE 336 1232 304 1232
FLAG 656 -352 0
FLAG 656 -464 0
FLAG 128 -176 0
FLAG 48 -112 0
FLAG -32 -48 0
FLAG -112 16 0
FLAG 128 80 0
FLAG 48 144 0
FLAG -32 208 0
FLAG -112 272 0
FLAG 128 336 0
FLAG 48 400 0
FLAG -32 464 0
FLAG 176 1232 0
FLAG 176 1120 0
FLAG 656 1008 0
FLAG 640 192 0
FLAG 720 192 0
FLAG 464 1072 0
FLAG 128 592 0
FLAG 48 656 0
FLAG -32 720 0
FLAG -112 784 0
FLAG -112 528 0
FLAG 128 848 0
FLAG 48 912 0
FLAG -32 976 0
FLAG 640 704 0
FLAG 720 704 0
FLAG 144 -352 0
FLAG 560 48 vDA
FLAG 560 560 vDB
FLAG 560 848 vEN
FLAG 240 848 vA0
FLAG 240 912 vA1
FLAG 240 976 vA2
FLAG 240 -176 vS1A
FLAG 240 -112 vS2A
FLAG 240 -48 vS3A
FLAG 240 16 vS4A
FLAG 240 80 vS5A
FLAG 240 144 vS6A
FLAG 240 208 vS7A
FLAG 240 272 vS8A
FLAG 240 336 vS1B
FLAG 240 400 vS2B
FLAG 240 464 vS3B
FLAG 240 528 vS4B
FLAG 240 592 vS5B
FLAG 240 656 vS6B
FLAG 240 720 vS7B
FLAG 240 784 vS8B
SYMBOL voltage 224 -176 R90
WINDOW 0 -32 56 VBottom 2
WINDOW 3 32 56 VTop 2
WINDOW 123 0 0 Left 0
WINDOW 39 0 0 Left 0
SYMATTR InstName V1
SYMATTR Value 1
SYMBOL voltage 144 -112 R90
WINDOW 0 -32 56 VBottom 2
WINDOW 3 32 56 VTop 2
WINDOW 123 0 0 Left 0
WINDOW 39 0 0 Left 0
SYMATTR InstName V2
SYMATTR Value 2
SYMBOL voltage 64 -48 R90
WINDOW 0 -32 56 VBottom 2
WINDOW 3 32 56 VTop 2
WINDOW 123 0 0 Left 0
WINDOW 39 0 0 Left 0
SYMATTR InstName V3
SYMATTR Value 3
SYMBOL voltage -16 16 R90
WINDOW 0 -32 56 VBottom 2
WINDOW 3 32 56 VTop 2
WINDOW 123 0 0 Left 0
WINDOW 39 0 0 Left 0
SYMATTR InstName V4
SYMATTR Value 4
SYMBOL voltage 224 80 R90
WINDOW 0 -32 56 VBottom 2
WINDOW 3 32 56 VTop 2
WINDOW 123 0 0 Left 0
WINDOW 39 0 0 Left 0
SYMATTR InstName V5
SYMATTR Value 5
SYMBOL voltage 144 144 R90
WINDOW 0 -32 56 VBottom 2
WINDOW 3 32 56 VTop 2
WINDOW 123 0 0 Left 0
WINDOW 39 0 0 Left 0
SYMATTR InstName V6
SYMATTR Value 6
SYMBOL voltage 64 208 R90
WINDOW 0 -32 56 VBottom 2
WINDOW 3 32 56 VTop 2
WINDOW 123 0 0 Left 0
WINDOW 39 0 0 Left 0
SYMATTR InstName V7
SYMATTR Value 7
SYMBOL voltage -16 272 R90
WINDOW 0 -32 56 VBottom 2
WINDOW 3 32 56 VTop 2
WINDOW 123 0 0 Left 0
WINDOW 39 0 0 Left 0
SYMATTR InstName V8
SYMATTR Value 8
SYMBOL voltage 224 336 R90
WINDOW 0 -32 56 VBottom 2
WINDOW 3 32 56 VTop 2
WINDOW 123 0 0 Left 0
WINDOW 39 0 0 Left 0
SYMATTR InstName V9
SYMATTR Value 9
SYMBOL voltage 144 400 R90
WINDOW 0 -32 56 VBottom 2
WINDOW 3 32 56 VTop 2
WINDOW 123 0 0 Left 0
WINDOW 39 0 0 Left 0
SYMATTR InstName V10
SYMATTR Value 10
SYMBOL voltage 64 464 R90
WINDOW 0 -32 56 VBottom 2
WINDOW 3 32 56 VTop 2
WINDOW 123 0 0 Left 0
WINDOW 39 0 0 Left 0
SYMATTR InstName V11
SYMATTR Value 11
SYMBOL voltage 512 -352 R270
WINDOW 0 -32 56 VBottom 2
WINDOW 3 32 56 VTop 2
WINDOW 123 0 0 Left 0
WINDOW 39 0 0 Left 0
SYMATTR InstName V18
SYMATTR Value 15
SYMBOL voltage 320 1232 R90
WINDOW 0 -32 56 VBottom 2
WINDOW 3 32 56 VTop 2
WINDOW 123 0 0 Left 0
WINDOW 39 0 0 Left 0
SYMATTR InstName V17
SYMATTR Value -15
SYMBOL voltage 656 880 R0
WINDOW 0 58 2 Top 2
WINDOW 3 213 128 Bottom 2
WINDOW 123 0 0 Left 0
WINDOW 39 0 0 Left 0
SYMATTR InstName V19
SYMATTR Value PULSE(0 1.8 0 10n 10n 10u 20u)
SYMBOL res 624 64 R0
SYMATTR InstName R1
SYMATTR Value 301
SYMBOL cap 544 -448 R270
WINDOW 0 32 32 VTop 2
WINDOW 3 0 32 VBottom 2
SYMATTR InstName C1
SYMATTR Value 0.1µ
SYMBOL cap 288 1104 R90
WINDOW 0 0 32 VBottom 2
WINDOW 3 32 32 VTop 2
SYMATTR InstName C2
SYMATTR Value 0.1µ
SYMBOL cap 704 96 R0
SYMATTR InstName C3
SYMATTR Value 36p
SYMBOL voltage 144 656 R90
WINDOW 0 -32 56 VBottom 2
WINDOW 3 32 56 VTop 2
WINDOW 123 0 0 Left 0
WINDOW 39 0 0 Left 0
SYMATTR InstName V14
SYMATTR Value 14
SYMBOL voltage 64 720 R90
WINDOW 0 -32 56 VBottom 2
WINDOW 3 32 56 VTop 2
WINDOW 123 0 0 Left 0
WINDOW 39 0 0 Left 0
SYMATTR InstName V15
SYMATTR Value 12
SYMBOL voltage -16 784 R90
WINDOW 0 -32 56 VBottom 2
WINDOW 3 32 56 VTop 2
WINDOW 123 0 0 Left 0
WINDOW 39 0 0 Left 0
SYMATTR InstName V16
SYMATTR Value 8
SYMBOL voltage 224 592 R90
WINDOW 0 -32 56 VBottom 2
WINDOW 3 32 56 VTop 2
WINDOW 123 0 0 Left 0
WINDOW 39 0 0 Left 0
SYMATTR InstName V13
SYMATTR Value 13
SYMBOL voltage -16 528 R90
WINDOW 0 -32 56 VBottom 2
WINDOW 3 32 56 VTop 2
WINDOW 123 0 0 Left 0
WINDOW 39 0 0 Left 0
SYMATTR InstName V12
SYMATTR Value 12
SYMBOL voltage 224 848 R90
WINDOW 0 -32 56 VBottom 2
WINDOW 3 32 56 VTop 2
WINDOW 123 0 0 Left 0
WINDOW 39 0 0 Left 0
SYMATTR InstName V20
SYMATTR Value 0
SYMBOL voltage 144 912 R90
WINDOW 0 -32 56 VBottom 2
WINDOW 3 32 56 VTop 2
WINDOW 123 0 0 Left 0
WINDOW 39 0 0 Left 0
SYMATTR InstName V21
SYMATTR Value 0
SYMBOL voltage 64 976 R90
WINDOW 0 -32 56 VBottom 2
WINDOW 3 32 56 VTop 2
WINDOW 123 0 0 Left 0
WINDOW 39 0 0 Left 0
SYMATTR InstName V22
SYMATTR Value 0
SYMBOL res 624 576 R0
SYMATTR InstName R2
SYMATTR Value 301
SYMBOL cap 704 608 R0
SYMATTR InstName C4
SYMATTR Value 36p
SYMBOL voltage 288 -352 R90
WINDOW 0 -32 56 VBottom 2
WINDOW 3 32 56 VTop 2
WINDOW 123 0 0 Left 0
WINDOW 39 0 0 Left 0
SYMATTR InstName V23
SYMATTR Value 1.8
SYMBOL ADG1207L 400 80 R0
SYMATTR InstName U1
TEXT -176 -576 Left 2 !.tran 100u
TEXT -176 -656 Left 2 ;Note:\nSwitch shown for a logic 0 input
