Version 4
SHEET 1 2888 1548
WIRE -1584 -368 -1600 -368
WIRE -1600 -336 -1600 -368
WIRE -1728 -272 -1904 -272
WIRE -1696 -272 -1728 -272
WIRE -1904 -256 -1904 -272
WIRE -1456 -240 -1504 -240
WIRE -1408 -240 -1456 -240
WIRE -1312 -240 -1408 -240
WIRE -2160 -224 -2176 -224
WIRE -2032 -224 -2048 -224
WIRE -1408 -224 -1408 -240
WIRE -1312 -224 -1312 -240
WIRE -2176 -208 -2176 -224
WIRE -2048 -208 -2048 -224
WIRE -1696 -208 -1712 -208
WIRE -1904 -160 -1904 -176
WIRE -1728 -144 -1824 -144
WIRE -1696 -144 -1728 -144
WIRE -1456 -144 -1504 -144
WIRE -1408 -128 -1408 -144
WIRE -1312 -128 -1312 -160
WIRE -1824 -80 -1824 -144
WIRE -1456 -80 -1456 -144
WIRE -1552 -16 -1552 -32
WIRE -1648 0 -1648 -32
WIRE -1632 0 -1648 0
WIRE -1456 16 -1456 0
WIRE -1824 32 -1824 0
FLAG -1904 -160 0
FLAG -1824 32 0
FLAG -1584 -368 V+
FLAG -1408 -128 0
FLAG -1552 -16 0
FLAG -1312 -128 0
FLAG -2176 -128 0
FLAG -2176 -224 V+
FLAG -1728 -272 vSA
FLAG -1728 -144 vIN
FLAG -1456 -240 vD
FLAG -2048 -128 0
FLAG -2048 -224 V-
FLAG -1632 0 V-
FLAG -1456 16 0
FLAG -1456 -144 vEN
FLAG -1712 -208 0
SYMBOL voltage -1904 -272 R0
SYMATTR InstName V1
SYMATTR Value 3
SYMBOL voltage -1824 -96 R0
WINDOW 3 -13 166 Left 2
SYMATTR Value PULSE(0 3.3 0 20n 20n 10u 20u)
SYMATTR InstName V2
SYMBOL res -1424 -240 R0
SYMATTR InstName R1
SYMATTR Value 301
SYMBOL cap -1328 -224 R0
SYMATTR InstName C1
SYMATTR Value 36p
SYMBOL voltage -2176 -224 R0
WINDOW 123 0 0 Left 0
WINDOW 39 0 0 Left 0
SYMATTR InstName V4
SYMATTR Value 15
SYMBOL ADG2436 -1600 -192 R0
SYMATTR InstName U1
SYMBOL voltage -2048 -224 R0
WINDOW 123 0 0 Left 0
WINDOW 39 0 0 Left 0
SYMATTR InstName V5
SYMATTR Value -15
SYMBOL voltage -1456 -96 R0
WINDOW 3 37 72 Left 2
SYMATTR Value 5
SYMATTR InstName V3
TEXT -1360 -40 Left 2 !.tran 100u
TEXT -2056 -584 Left 2 ;Notes:\nSwitch shown for a logic 0 input\nParameter performance at ±15V supply\nCharge injection is not included\nPin capacitance is not included\nOff isolation and Crosstalk specified at 100KHz only
