Version 4
SHEET 1 2200 1060
WIRE 672 -432 656 -432
WIRE -224 -416 -240 -416
WIRE -112 -416 -128 -416
WIRE -240 -400 -240 -416
WIRE -128 -400 -128 -416
WIRE 656 -400 656 -432
WIRE -240 -304 -240 -320
WIRE -128 -304 -128 -320
WIRE 496 -304 464 -304
WIRE 496 -240 464 -240
WIRE 848 -208 816 -208
WIRE 912 -208 848 -208
WIRE 992 -208 912 -208
WIRE -224 -192 -240 -192
WIRE -96 -192 -112 -192
WIRE 912 -192 912 -208
WIRE 992 -192 992 -208
WIRE -240 -176 -240 -192
WIRE -112 -176 -112 -192
WIRE 496 -176 464 -176
WIRE 496 -112 464 -112
WIRE 992 -112 992 -128
WIRE -240 -80 -240 -96
WIRE -112 -80 -112 -96
WIRE 480 -64 464 -64
WIRE 496 -64 480 -64
WIRE 848 -64 816 -64
WIRE 992 -64 848 -64
WIRE 992 -48 992 -64
WIRE 480 -16 480 -64
WIRE 496 -16 480 -16
WIRE 848 -16 816 -16
WIRE 896 -16 848 -16
WIRE 896 0 896 -16
WIRE 496 32 464 32
WIRE 832 32 816 32
WIRE 992 32 992 16
WIRE 896 80 896 64
WIRE -224 96 -240 96
WIRE -96 96 -112 96
WIRE -240 112 -240 96
WIRE -112 112 -112 96
WIRE 592 144 592 112
WIRE 608 144 592 144
WIRE 720 144 720 112
WIRE -240 208 -240 192
WIRE -112 208 -112 192
WIRE -224 336 -240 336
WIRE -96 336 -112 336
WIRE -240 352 -240 336
WIRE -112 352 -112 336
WIRE -240 448 -240 432
WIRE -112 448 -112 432
FLAG -240 -304 0
FLAG -128 -304 0
FLAG -128 -416 Vdd
FLAG -240 -416 Vss
FLAG -112 -80 0
FLAG 720 144 0
FLAG 896 80 0
FLAG 848 -16 SF
FLAG -240 208 0
FLAG -112 208 0
FLAG -112 96 vS2
FLAG -240 96 vS1
FLAG 992 -112 0
FLAG 912 -112 0
FLAG -112 -192 Ax
FLAG 464 -64 Ax
FLAG 464 -304 vS1
FLAG 592 144 Vss
FLAG 656 -432 Vdd
FLAG 848 -208 D
FLAG -240 -80 0
FLAG -240 -192 EN
FLAG 464 32 EN
FLAG 464 -176 vS3
FLAG 464 -112 vS4
FLAG 464 -240 vS2
FLAG 992 32 0
FLAG 848 -64 FF
FLAG -240 448 0
FLAG -112 448 0
FLAG -240 336 vS3
FLAG -112 336 vS4
FLAG 832 32 0
SYMBOL voltage -128 -416 R0
WINDOW 123 0 0 Left 0
WINDOW 39 0 0 Left 0
SYMATTR InstName V1
SYMATTR Value 15
SYMBOL voltage -240 -416 R0
WINDOW 123 0 0 Left 0
WINDOW 39 0 0 Left 0
SYMATTR InstName V2
SYMATTR Value -15
SYMBOL voltage -112 -192 M0
WINDOW 3 -354 97 Left 2
WINDOW 123 0 0 Left 0
WINDOW 39 0 0 Left 0
WINDOW 0 -26 15 Right 2
SYMATTR Value PULSE(0 3 0 20n 20n 50u 200u)
SYMATTR InstName V3
SYMBOL cap 880 0 R0
SYMATTR InstName C2
SYMATTR Value 12p
SYMBOL voltage -112 96 R0
WINDOW 123 0 0 Left 0
WINDOW 39 0 0 Left 0
SYMATTR InstName V6
SYMATTR Value PULSE(0 40 50u 5u 5u 50u)
SYMBOL voltage -240 96 R0
WINDOW 123 0 0 Left 0
WINDOW 39 0 0 Left 0
SYMATTR InstName V7
SYMATTR Value 5
SYMBOL res 896 -96 M180
WINDOW 0 36 76 Left 2
WINDOW 3 36 40 Left 2
SYMATTR InstName R1
SYMATTR Value 1k
SYMBOL cap 976 -192 R0
SYMATTR InstName C1
SYMATTR Value 2p
SYMBOL voltage -240 -192 R0
WINDOW 123 0 0 Left 0
WINDOW 39 0 0 Left 0
SYMATTR InstName V5
SYMATTR Value 5
SYMBOL cap 976 -48 R0
SYMATTR InstName C3
SYMATTR Value 12p
SYMBOL voltage -112 336 R0
WINDOW 123 0 0 Left 0
WINDOW 39 0 0 Left 0
SYMATTR InstName V4
SYMATTR Value SINE(0 10 10K)
SYMBOL voltage -240 336 R0
WINDOW 123 0 0 Left 0
WINDOW 39 0 0 Left 0
SYMATTR InstName V8
SYMATTR Value -10
SYMBOL ADG5404F 656 -112 R0
SYMATTR InstName U1
TEXT 504 216 Left 2 !.tran 500u
TEXT -264 -520 Left 2 ;Switch Voltage Supplies
TEXT -264 -256 Left 2 ;Digital Input Voltage
TEXT -272 0 Left 2 ;Switch Analog Inputs
TEXT -264 -760 Left 2 ;Notes:\nInterrupt Flag recovery time with pull-up resistor not included\nQinj not included\nCrosstalk between adjacent channel not included\nParameters modeled at ±15V supplies\nSwitch shown for a logic 0 input
