Version 4
SHEET 1 1000 856
WIRE -560 -48 -560 -64
WIRE -448 -48 -448 -64
WIRE 224 32 224 0
WIRE -560 48 -560 32
WIRE -448 48 -448 32
WIRE 112 112 80 112
WIRE 512 112 336 112
WIRE 848 112 512 112
WIRE 912 112 848 112
WIRE 912 128 912 112
WIRE 112 176 -32 176
WIRE -512 208 -512 192
WIRE 848 224 848 192
WIRE 912 224 912 192
WIRE -32 240 -32 176
WIRE 112 240 80 240
WIRE 512 240 336 240
WIRE 688 240 512 240
WIRE 752 240 688 240
WIRE 752 256 752 240
WIRE -512 304 -512 288
WIRE -32 304 -32 240
WIRE 112 304 -32 304
WIRE 368 304 336 304
WIRE 416 304 368 304
WIRE 448 304 416 304
WIRE 560 304 528 304
WIRE 416 336 416 304
WIRE 560 336 560 304
WIRE 688 352 688 320
WIRE 752 352 752 320
WIRE 416 416 416 400
WIRE 560 432 560 416
WIRE 272 448 272 432
WIRE -528 464 -528 448
WIRE -416 464 -416 448
WIRE 176 480 176 432
WIRE -528 560 -528 544
WIRE -416 560 -416 544
FLAG -560 48 0
FLAG -448 48 0
FLAG -448 -64 Vdd
FLAG -560 -64 Vss
FLAG -512 304 0
FLAG 272 448 0
FLAG 416 416 0
FLAG 560 432 0
FLAG 368 304 FF
FLAG -528 560 0
FLAG -416 560 0
FLAG -416 448 VS2
FLAG -528 448 VS1
FLAG 912 224 0
FLAG 688 352 0
FLAG 848 224 0
FLAG 752 352 0
FLAG -512 192 INx
FLAG -32 240 INx
FLAG 80 112 VS1
FLAG 80 240 VS2
FLAG 176 480 Vss
FLAG 224 0 Vdd
FLAG 512 112 D1
FLAG 512 240 D2
SYMBOL voltage -448 -64 R0
WINDOW 123 0 0 Left 0
WINDOW 39 0 0 Left 0
SYMATTR InstName V1
SYMATTR Value 15
SYMBOL voltage -560 -64 R0
WINDOW 123 0 0 Left 0
WINDOW 39 0 0 Left 0
SYMATTR InstName V2
SYMATTR Value -15
SYMBOL voltage -512 192 M0
WINDOW 3 -399 82 Left 2
WINDOW 123 0 0 Left 0
WINDOW 39 0 0 Left 0
SYMATTR Value pulse(0 5 0 10u 10u 10m 20m)
SYMATTR InstName V3
SYMBOL res 432 320 R270
WINDOW 0 32 56 VTop 2
WINDOW 3 0 56 VBottom 2
SYMATTR InstName R1
SYMATTR Value 1k
SYMBOL cap 400 336 R0
SYMATTR InstName C1
SYMATTR Value 12
SYMBOL voltage 560 320 R0
WINDOW 3 26 94 Left 2
WINDOW 123 0 0 Left 0
WINDOW 39 0 0 Left 0
SYMATTR Value 5
SYMATTR InstName V4
SYMBOL voltage -416 448 R0
WINDOW 123 0 0 Left 0
WINDOW 39 0 0 Left 0
SYMATTR InstName V6
SYMATTR Value 10
SYMBOL voltage -528 448 R0
WINDOW 123 0 0 Left 0
WINDOW 39 0 0 Left 0
SYMATTR InstName V7
SYMATTR Value 10
SYMBOL res 704 336 R180
WINDOW 0 36 76 Left 2
WINDOW 3 36 40 Left 2
SYMATTR InstName R2
SYMATTR Value 300
SYMBOL res 864 208 R180
WINDOW 0 36 76 Left 2
WINDOW 3 36 40 Left 2
SYMATTR InstName R3
SYMATTR Value 300
SYMBOL cap 896 128 R0
SYMATTR InstName C2
SYMATTR Value 35p
SYMBOL cap 736 256 R0
SYMATTR InstName C3
SYMATTR Value 35p
SYMBOL Switches\\ADG5421F 224 224 R0
SYMATTR InstName U1
TEXT -584 656 Left 2 !.tran 120m
TEXT -584 -120 Left 2 ;Switch Voltage Supplies
TEXT -600 120 Left 2 ;Digital Input Voltage
TEXT -584 616 Left 2 ;Simulation Commands
TEXT -440 656 Left 1 ;--->Transient Analysis
TEXT -592 352 Left 2 ;Switch Analog Inputs
