Version 4
SHEET 1 2200 1060
WIRE 672 -448 656 -448
WIRE -224 -432 -240 -432
WIRE -112 -432 -128 -432
WIRE -240 -400 -240 -432
WIRE -128 -400 -128 -432
WIRE 656 -400 656 -448
WIRE 496 -320 464 -320
WIRE -240 -304 -240 -320
WIRE -128 -304 -128 -320
WIRE 848 -288 816 -288
WIRE 944 -288 848 -288
WIRE 1024 -288 944 -288
WIRE 944 -272 944 -288
WIRE 1024 -272 1024 -288
WIRE 496 -256 464 -256
WIRE -224 -208 -240 -208
WIRE -96 -208 -112 -208
WIRE 1024 -192 1024 -208
WIRE -240 -176 -240 -208
WIRE -112 -176 -112 -208
WIRE 496 -176 464 -176
WIRE 848 -144 816 -144
WIRE 1168 -144 848 -144
WIRE 1248 -144 1168 -144
WIRE 1168 -128 1168 -144
WIRE 1248 -128 1248 -144
WIRE 496 -112 464 -112
WIRE -240 -80 -240 -96
WIRE -112 -80 -112 -96
WIRE 480 -64 464 -64
WIRE 496 -64 480 -64
WIRE 848 -64 816 -64
WIRE 1008 -64 848 -64
WIRE 1248 -48 1248 -64
WIRE 480 -16 480 -64
WIRE 496 -16 480 -16
WIRE 848 -16 816 -16
WIRE 912 -16 848 -16
WIRE 1008 16 1008 0
WIRE 496 32 464 32
WIRE 848 32 816 32
WIRE -224 64 -240 64
WIRE -96 64 -112 64
WIRE 848 64 848 32
WIRE 912 64 912 48
WIRE -240 112 -240 64
WIRE -112 112 -112 64
WIRE 592 176 592 112
WIRE 608 176 592 176
WIRE 720 176 720 112
WIRE -240 208 -240 192
WIRE -112 208 -112 192
WIRE -224 304 -240 304
WIRE -96 304 -112 304
WIRE -240 352 -240 304
WIRE -112 352 -112 304
WIRE -240 448 -240 432
WIRE -112 448 -112 432
FLAG -240 -304 0
FLAG -128 -304 0
FLAG -112 -432 Vdd
FLAG -224 -432 Vss
FLAG -112 -80 0
FLAG 720 176 0
FLAG 912 64 0
FLAG 848 -16 SF
FLAG -240 208 0
FLAG -112 208 0
FLAG -96 64 VS1B
FLAG -224 64 VS1A
FLAG 1024 -192 0
FLAG 944 -192 0
FLAG -96 -208 INx
FLAG 464 -64 INx
FLAG 464 -320 VS1A
FLAG 608 176 Vss
FLAG 672 -448 Vdd
FLAG 848 -288 D1
FLAG -240 -80 0
FLAG -224 -208 EN
FLAG 464 32 EN
FLAG 464 -176 VS2A
FLAG 464 -112 VS2B
FLAG 464 -256 VS1B
FLAG 1248 -48 0
FLAG 1168 -48 0
FLAG 848 -144 D2
FLAG 1008 16 0
FLAG 848 -64 FF
FLAG -240 448 0
FLAG -112 448 0
FLAG -224 304 VS2A
FLAG -96 304 VS2B
FLAG 848 64 0
SYMBOL voltage -128 -416 R0
WINDOW 123 0 0 Left 0
WINDOW 39 0 0 Left 0
SYMATTR InstName V1
SYMATTR Value 15
SYMBOL voltage -240 -416 R0
WINDOW 123 0 0 Left 0
WINDOW 39 0 0 Left 0
SYMATTR InstName V2
SYMATTR Value -15
SYMBOL voltage -112 -192 M0
WINDOW 3 -356 101 Left 2
WINDOW 123 0 0 Left 0
WINDOW 39 0 0 Left 0
SYMATTR Value PULSE(0 3 0 20n 20n 50u 200u)
SYMATTR InstName V3
SYMBOL cap 896 -16 R0
SYMATTR InstName C1
SYMATTR Value 12p
SYMBOL voltage -112 96 R0
WINDOW 123 0 0 Left 0
WINDOW 39 0 0 Left 0
SYMATTR InstName V6
SYMATTR Value PULSE(0 40 50u 5u 5u 50u)
SYMBOL voltage -240 96 R0
WINDOW 123 0 0 Left 0
WINDOW 39 0 0 Left 0
SYMATTR InstName V7
SYMATTR Value 0
SYMBOL res 928 -176 M180
WINDOW 0 36 76 Left 2
WINDOW 3 36 40 Left 2
SYMATTR InstName R3
SYMATTR Value 1k
SYMBOL cap 1008 -272 R0
SYMATTR InstName C2
SYMATTR Value 2p
SYMBOL voltage -240 -192 R0
WINDOW 123 0 0 Left 0
WINDOW 39 0 0 Left 0
SYMATTR InstName V5
SYMATTR Value 5
SYMBOL res 1152 -32 M180
WINDOW 0 36 76 Left 2
WINDOW 3 36 40 Left 2
SYMATTR InstName R2
SYMATTR Value 1k
SYMBOL cap 1232 -128 R0
SYMATTR InstName C5
SYMATTR Value 2p
SYMBOL cap 992 -64 R0
SYMATTR InstName C7
SYMATTR Value 12p
SYMBOL voltage -112 336 R0
WINDOW 123 0 0 Left 0
WINDOW 39 0 0 Left 0
SYMATTR InstName V4
SYMATTR Value SINE(0 10 10K)
SYMBOL voltage -240 336 R0
WINDOW 123 0 0 Left 0
WINDOW 39 0 0 Left 0
SYMATTR InstName V8
SYMATTR Value -10
SYMBOL ADG5436F 656 -112 R0
SYMATTR InstName U2
TEXT 504 232 Left 2 !.tran 500u
TEXT -264 -520 Left 2 ;Switch Voltage Supplies
TEXT -264 -256 Left 2 ;Digital Input Voltage
TEXT -272 0 Left 2 ;Switch Analog Inputs
TEXT -264 -760 Left 2 ;Notes:\nInterrupt Flag recovery time with pull-up resistor not included\nQinj not included\nCrosstalk between adjacent channel not included\nParameters modeled at ±15V supplies\nSwitch shown for a logic 0 input
