Version 4
SHEET 1 936 832
WIRE 240 144 240 112
WIRE -80 224 -112 224
WIRE 112 224 0 224
WIRE 144 224 112 224
WIRE 384 224 336 224
WIRE 464 224 384 224
WIRE 576 224 464 224
WIRE 464 256 464 224
WIRE 576 256 576 224
WIRE 112 288 48 288
WIRE 144 288 112 288
WIRE -288 336 -288 304
WIRE -192 336 -192 304
WIRE 48 336 48 288
WIRE 464 352 464 336
WIRE 576 352 576 320
WIRE 304 416 304 400
WIRE 176 432 176 400
WIRE -288 464 -288 416
WIRE -192 464 -192 416
WIRE 48 464 48 416
FLAG -112 224 0
FLAG 48 464 0
FLAG 464 352 0
FLAG 304 416 0
FLAG 384 224 vD
FLAG 112 224 vS
FLAG 112 288 vIN
FLAG 576 352 0
FLAG -288 304 v+
FLAG 240 112 v+
FLAG -288 464 0
FLAG -192 464 0
FLAG -192 304 v-
FLAG 176 432 v-
SYMBOL voltage 16 224 M270
WINDOW 0 32 56 VTop 2
WINDOW 3 -32 56 VBottom 2
WINDOW 123 0 0 Left 0
WINDOW 39 0 0 Left 0
SYMATTR InstName V1
SYMATTR Value SINE(0 10 20)
SYMBOL res 448 240 R0
SYMATTR InstName R1
SYMATTR Value 301
SYMBOL voltage 48 320 R0
WINDOW 123 0 0 Left 0
WINDOW 39 0 0 Left 0
WINDOW 3 30 177 Left 2
SYMATTR Value PULSE(0 2.5 20n 20n 20n 150m 300m)
SYMATTR InstName V2
SYMBOL cap 560 256 R0
SYMATTR InstName C1
SYMATTR Value 36p
SYMBOL voltage -288 320 R0
WINDOW 123 0 0 Left 0
WINDOW 39 0 0 Left 0
SYMATTR InstName V3
SYMATTR Value 15
SYMBOL voltage -192 320 R0
WINDOW 123 0 0 Left 0
WINDOW 39 0 0 Left 0
SYMATTR InstName V4
SYMATTR Value -15
SYMBOL ADG5212 240 272 R0
SYMATTR InstName U1
TEXT 80 528 Left 2 !.tran 1
TEXT -320 -8 Left 2 ;Note:\nSwitch shown for a logic 0 input\nQinj not included\nOn resistance modeled at ±15V supplies\nOny one channel is modelled
