Version 4
SHEET 1 2844 1336
WIRE -800 -320 -800 -336
WIRE -1040 -256 -1072 -256
WIRE -896 -256 -960 -256
WIRE -608 -224 -704 -224
WIRE -496 -224 -608 -224
WIRE -1152 -192 -1184 -192
WIRE -896 -192 -1072 -192
WIRE -608 -176 -608 -224
WIRE -496 -160 -496 -224
WIRE -896 -128 -1120 -128
WIRE -1376 -80 -1376 -96
WIRE -1264 -80 -1264 -96
WIRE -1120 -80 -1120 -128
WIRE -896 -80 -1008 -80
WIRE -1008 -64 -1008 -80
WIRE -608 -32 -608 -96
WIRE -496 -32 -496 -96
WIRE -864 0 -864 -16
WIRE -736 0 -736 -16
WIRE -1376 16 -1376 0
WIRE -1264 16 -1264 0
WIRE -1184 16 -1184 -192
WIRE -1120 16 -1120 0
FLAG -1376 16 0
FLAG -1264 16 0
FLAG -1264 -96 +V
FLAG -1376 -96 -V
FLAG -1072 -256 0
FLAG -1120 16 0
FLAG -608 -32 0
FLAG -800 -336 +V
FLAG -736 0 0
FLAG -864 0 -V
FLAG -1008 16 0
FLAG -1184 16 0
FLAG -496 -32 0
SYMBOL voltage -1264 -96 R0
WINDOW 123 0 0 Left 0
WINDOW 39 0 0 Left 0
SYMATTR InstName V1
SYMATTR Value 15
SYMBOL voltage -1376 -96 R0
WINDOW 123 0 0 Left 0
WINDOW 39 0 0 Left 0
SYMATTR InstName V2
SYMATTR Value -15
SYMBOL voltage -1120 -96 M0
WINDOW 123 0 0 Left 0
WINDOW 39 0 0 Left 0
WINDOW 3 -227 168 Left 2
SYMATTR Value PULSE(0 5 0 20n 20n 10u 20u)
SYMATTR InstName V4
SYMBOL res -592 -192 M0
SYMATTR InstName R2
SYMATTR Value 300
SYMBOL voltage -944 -256 R90
WINDOW 123 0 0 Left 0
WINDOW 39 0 0 Left 0
WINDOW 0 47 41 VRight 2
WINDOW 3 -46 -22 VRight 2
SYMATTR InstName V5
SYMATTR Value 10
SYMBOL voltage -1008 -80 R0
WINDOW 123 0 0 Left 0
WINDOW 39 0 0 Left 0
SYMATTR InstName V3
SYMATTR Value 5
SYMBOL voltage -1056 -192 R90
WINDOW 0 -32 56 VBottom 2
WINDOW 3 32 56 VTop 2
WINDOW 123 0 0 Left 0
WINDOW 39 0 0 Left 0
SYMATTR InstName V6
SYMATTR Value 0
SYMBOL cap -480 -96 R180
WINDOW 0 24 56 Left 2
WINDOW 3 24 8 Left 2
SYMATTR InstName C1
SYMATTR Value 35p
SYMBOL ADG5419 -800 -176 R0
SYMATTR InstName U1
TEXT -1416 72 Left 2 !.tran 0.0001
