Version 4
SHEET 1 2172 1360
WIRE 480 -464 400 -464
WIRE 592 -464 544 -464
WIRE 400 -352 400 -464
WIRE 464 -352 400 -352
WIRE 592 -352 544 -352
WIRE 400 -240 400 -352
WIRE 240 -176 208 -176
WIRE 272 -176 240 -176
WIRE 240 -112 128 -112
WIRE 272 -112 240 -112
WIRE 240 -48 48 -48
WIRE 272 -48 240 -48
WIRE 240 16 -32 16
WIRE 272 16 240 16
WIRE 560 48 528 48
WIRE 608 48 560 48
WIRE 688 48 608 48
WIRE 240 80 208 80
WIRE 272 80 240 80
WIRE 608 80 608 48
WIRE 688 96 688 48
WIRE 240 144 128 144
WIRE 272 144 240 144
WIRE 608 192 608 160
WIRE 688 192 688 160
WIRE 240 208 48 208
WIRE 272 208 240 208
WIRE 240 272 -32 272
WIRE 272 272 240 272
WIRE 240 336 208 336
WIRE 272 336 240 336
WIRE 560 336 528 336
WIRE 656 336 560 336
WIRE 656 384 656 336
WIRE 240 400 128 400
WIRE 272 400 240 400
WIRE 240 464 48 464
WIRE 272 464 240 464
WIRE 656 496 656 464
WIRE 464 544 464 512
WIRE 224 592 176 592
WIRE 336 592 336 512
WIRE 336 592 288 592
WIRE 224 704 176 704
WIRE 336 704 336 592
WIRE 336 704 304 704
FLAG 592 -352 0
FLAG 592 -464 0
FLAG 128 -176 0
FLAG 48 -112 0
FLAG -32 -48 0
FLAG -112 16 0
FLAG 128 80 0
FLAG 48 144 0
FLAG -32 208 0
FLAG -112 272 0
FLAG 176 704 0
FLAG 176 592 0
FLAG 656 496 0
FLAG 608 192 0
FLAG 688 192 0
FLAG 464 544 0
FLAG 128 336 0
FLAG 48 400 0
FLAG -32 464 0
FLAG 560 48 vD
FLAG 560 336 vEN
FLAG 240 336 vA0
FLAG 240 400 vA1
FLAG 240 464 vA2
FLAG 240 -176 vS1
FLAG 240 -112 vS2
FLAG 240 -48 vS3
FLAG 240 16 vS4
FLAG 240 80 vS5
FLAG 240 144 vS6
FLAG 240 208 vS7
FLAG 240 272 vS8
SYMBOL voltage 224 -176 R90
WINDOW 0 -32 56 VBottom 2
WINDOW 3 -1 15 VTop 2
WINDOW 123 0 0 Left 0
WINDOW 39 0 0 Left 0
SYMATTR InstName V1
SYMATTR Value 1
SYMBOL voltage 144 -112 R90
WINDOW 0 -32 56 VBottom 2
WINDOW 3 3 14 VTop 2
WINDOW 123 0 0 Left 0
WINDOW 39 0 0 Left 0
SYMATTR InstName V2
SYMATTR Value 2
SYMBOL voltage 64 -48 R90
WINDOW 0 -32 56 VBottom 2
WINDOW 3 1 16 VTop 2
WINDOW 123 0 0 Left 0
WINDOW 39 0 0 Left 0
SYMATTR InstName V3
SYMATTR Value 3
SYMBOL voltage -16 16 R90
WINDOW 0 -32 56 VBottom 2
WINDOW 3 1 17 VTop 2
WINDOW 123 0 0 Left 0
WINDOW 39 0 0 Left 0
SYMATTR InstName V4
SYMATTR Value 4
SYMBOL voltage 224 80 R90
WINDOW 0 -32 56 VBottom 2
WINDOW 3 8 16 VTop 2
WINDOW 123 0 0 Left 0
WINDOW 39 0 0 Left 0
SYMATTR InstName V5
SYMATTR Value 5
SYMBOL voltage 144 144 R90
WINDOW 0 -32 56 VBottom 2
WINDOW 3 5 14 VTop 2
WINDOW 123 0 0 Left 0
WINDOW 39 0 0 Left 0
SYMATTR InstName V6
SYMATTR Value 6
SYMBOL voltage 64 208 R90
WINDOW 0 -32 56 VBottom 2
WINDOW 3 2 13 VTop 2
WINDOW 123 0 0 Left 0
WINDOW 39 0 0 Left 0
SYMATTR InstName V7
SYMATTR Value 7
SYMBOL voltage -16 272 R90
WINDOW 0 -32 56 VBottom 2
WINDOW 3 1 8 VTop 2
WINDOW 123 0 0 Left 0
WINDOW 39 0 0 Left 0
SYMATTR InstName V8
SYMATTR Value 8
SYMBOL voltage 448 -352 R270
WINDOW 0 -32 56 VBottom 2
WINDOW 3 32 56 VTop 2
WINDOW 123 0 0 Left 0
WINDOW 39 0 0 Left 0
SYMATTR InstName V18
SYMATTR Value 15
SYMBOL voltage 320 704 R90
WINDOW 0 -32 56 VBottom 2
WINDOW 3 32 56 VTop 2
WINDOW 123 0 0 Left 0
WINDOW 39 0 0 Left 0
SYMATTR InstName V17
SYMATTR Value -15
SYMBOL voltage 656 368 R0
WINDOW 0 58 2 Top 2
WINDOW 3 213 128 Bottom 2
WINDOW 123 0 0 Left 0
WINDOW 39 0 0 Left 0
SYMATTR InstName V19
SYMATTR Value PULSE(0 3 0 10n 10n 10u 20u)
SYMBOL res 592 64 R0
SYMATTR InstName R1
SYMATTR Value 301
SYMBOL cap 480 -448 R270
WINDOW 0 32 32 VTop 2
WINDOW 3 0 32 VBottom 2
SYMATTR InstName C1
SYMATTR Value 0.1µ
SYMBOL cap 288 576 R90
WINDOW 0 0 32 VBottom 2
WINDOW 3 32 32 VTop 2
SYMATTR InstName C2
SYMATTR Value 0.1µ
SYMBOL cap 672 96 R0
SYMATTR InstName C3
SYMATTR Value 36p
SYMBOL voltage 224 336 R90
WINDOW 0 -32 56 VBottom 2
WINDOW 3 32 56 VTop 2
WINDOW 123 0 0 Left 0
WINDOW 39 0 0 Left 0
SYMATTR InstName V20
SYMATTR Value 3
SYMBOL voltage 144 400 R90
WINDOW 0 -32 56 VBottom 2
WINDOW 3 32 56 VTop 2
WINDOW 123 0 0 Left 0
WINDOW 39 0 0 Left 0
SYMATTR InstName V21
SYMATTR Value 3
SYMBOL voltage 64 464 R90
WINDOW 0 -32 56 VBottom 2
WINDOW 3 32 56 VTop 2
WINDOW 123 0 0 Left 0
WINDOW 39 0 0 Left 0
SYMATTR InstName V22
SYMATTR Value 3
SYMBOL ADG5208 400 80 R0
SYMATTR InstName U1
TEXT 408 616 Left 2 !.tran 100u
TEXT -304 -424 Left 2 ;Notes:\nSwitch shown for a logic 0 input\nCrosstalk at -96 dB
