Version 4
SHEET 1 1144 896
WIRE 256 -320 208 -320
WIRE 400 -320 336 -320
WIRE 256 -208 208 -208
WIRE 400 -208 400 -320
WIRE 400 -208 320 -208
WIRE 400 -112 400 -208
WIRE 112 -48 80 -48
WIRE 240 -48 192 -48
WIRE 272 -48 240 -48
WIRE -48 16 -80 16
WIRE 240 16 32 16
WIRE 272 16 240 16
WIRE 560 48 528 48
WIRE 624 48 560 48
WIRE 704 48 624 48
WIRE 624 64 624 48
WIRE 112 80 80 80
WIRE 240 80 192 80
WIRE 272 80 240 80
WIRE 704 80 704 48
WIRE -48 144 -80 144
WIRE 240 144 32 144
WIRE 272 144 240 144
WIRE 624 160 624 144
WIRE 704 160 704 144
WIRE 112 208 80 208
WIRE 240 208 192 208
WIRE 272 208 240 208
WIRE 560 208 528 208
WIRE 672 208 560 208
WIRE 672 240 672 208
WIRE -48 272 -80 272
WIRE 240 272 32 272
WIRE 272 272 240 272
WIRE 672 368 672 320
WIRE 464 416 464 384
WIRE 224 464 176 464
WIRE 336 464 336 384
WIRE 336 464 288 464
WIRE 224 576 176 576
WIRE 336 576 336 464
WIRE 336 576 304 576
FLAG 208 -320 0
FLAG 208 -208 0
FLAG 80 -48 0
FLAG -80 16 0
FLAG 80 80 0
FLAG -80 144 0
FLAG 80 208 0
FLAG -80 272 0
FLAG 176 576 0
FLAG 176 464 0
FLAG 672 368 0
FLAG 464 416 0
FLAG 624 160 0
FLAG 704 160 0
FLAG 240 -48 vS1
FLAG 240 16 vS2
FLAG 240 80 vS3
FLAG 240 144 vS4
FLAG 560 48 vD
FLAG 560 208 vEN
FLAG 240 208 vA0
FLAG 240 272 vA1
SYMBOL voltage 208 -48 R90
WINDOW 0 -32 56 VBottom 2
WINDOW 3 32 56 VTop 2
WINDOW 123 0 0 Left 0
WINDOW 39 0 0 Left 0
SYMATTR InstName V4
SYMATTR Value 4
SYMBOL voltage 48 16 R90
WINDOW 0 -32 56 VBottom 2
WINDOW 3 32 56 VTop 2
WINDOW 123 0 0 Left 0
WINDOW 39 0 0 Left 0
SYMATTR InstName V5
SYMATTR Value -4
SYMBOL voltage 208 80 R90
WINDOW 0 -32 56 VBottom 2
WINDOW 3 32 56 VTop 2
WINDOW 123 0 0 Left 0
WINDOW 39 0 0 Left 0
SYMATTR InstName V6
SYMATTR Value 8
SYMBOL voltage 48 144 R90
WINDOW 0 -32 56 VBottom 2
WINDOW 3 32 56 VTop 2
WINDOW 123 0 0 Left 0
WINDOW 39 0 0 Left 0
SYMATTR InstName V7
SYMATTR Value -8
SYMBOL voltage 208 208 R90
WINDOW 0 -32 56 VBottom 2
WINDOW 3 32 56 VTop 2
WINDOW 123 0 0 Left 0
WINDOW 39 0 0 Left 0
SYMATTR InstName V8
SYMATTR Value 0
SYMBOL voltage 48 272 R90
WINDOW 0 -32 56 VBottom 2
WINDOW 3 32 56 VTop 2
WINDOW 123 0 0 Left 0
WINDOW 39 0 0 Left 0
SYMATTR InstName V9
SYMATTR Value 0
SYMBOL voltage 352 -320 R90
WINDOW 0 -32 56 VBottom 2
WINDOW 3 32 56 VTop 2
WINDOW 123 0 0 Left 0
WINDOW 39 0 0 Left 0
SYMATTR InstName V1
SYMATTR Value 15
SYMBOL voltage 320 576 R90
WINDOW 0 -32 56 VBottom 2
WINDOW 3 32 56 VTop 2
WINDOW 123 0 0 Left 0
WINDOW 39 0 0 Left 0
SYMATTR InstName V2
SYMATTR Value -15
SYMBOL voltage 672 224 R0
WINDOW 0 53 4 Top 2
WINDOW 3 212 113 Bottom 2
WINDOW 123 0 0 Left 0
WINDOW 39 0 0 Left 0
SYMATTR InstName V3
SYMATTR Value PULSE(0 5 0 10n 10n 10u 20u)
SYMBOL res 608 48 R0
SYMATTR InstName R1
SYMATTR Value 301
SYMBOL cap 320 -224 R90
WINDOW 0 0 32 VBottom 2
WINDOW 3 32 32 VTop 2
SYMATTR InstName C1
SYMATTR Value 0.1µ
SYMBOL cap 288 448 R90
WINDOW 0 0 32 VBottom 2
WINDOW 3 32 32 VTop 2
SYMATTR InstName C2
SYMATTR Value 0.1µ
SYMBOL cap 688 80 R0
SYMATTR InstName C3
SYMATTR Value 36p
SYMBOL ADG5204 400 208 R0
SYMATTR InstName U1
TEXT -64 472 Left 2 !.tran 100u
