Version 4
SHEET 1 2844 1336
WIRE -112 -128 -112 -144
WIRE -464 -48 -464 -64
WIRE -336 -48 -368 -48
WIRE -208 -48 -256 -48
WIRE 128 -48 -16 -48
WIRE 224 -48 128 -48
WIRE 128 -16 128 -48
WIRE 224 0 224 -48
WIRE -208 16 -272 16
WIRE 32 16 -16 16
WIRE -272 32 -272 16
WIRE -464 48 -464 32
WIRE 32 48 32 16
WIRE 128 80 128 64
WIRE 224 80 224 64
WIRE -272 112 -272 96
WIRE -464 144 -464 128
WIRE -176 144 -176 128
WIRE -48 144 -48 128
WIRE 32 144 32 128
WIRE -464 240 -464 224
FLAG -464 240 0
FLAG -464 48 0
FLAG -464 -64 +V
FLAG -464 128 -V
FLAG -368 -48 0
FLAG -176 144 -V
FLAG -112 -144 +V
FLAG -48 144 0
FLAG 32 144 0
FLAG 128 80 0
FLAG 224 80 0
FLAG -272 112 0
SYMBOL voltage -464 -64 R0
WINDOW 123 0 0 Left 0
WINDOW 39 0 0 Left 0
SYMATTR InstName V1
SYMATTR Value 15
SYMBOL voltage -464 128 R0
WINDOW 123 0 0 Left 0
WINDOW 39 0 0 Left 0
SYMATTR InstName V2
SYMATTR Value -15
SYMBOL voltage -240 -48 M270
WINDOW 0 32 56 VTop 2
WINDOW 3 -32 56 VBottom 2
WINDOW 123 0 0 Left 0
WINDOW 39 0 0 Left 0
SYMATTR InstName V3
SYMATTR Value 10
SYMBOL voltage 32 32 R0
WINDOW 3 17 95 Left 2
SYMATTR Value pulse(0 5 0 20n 20n 10u 20u)
SYMATTR InstName V4
SYMBOL res 112 -32 R0
SYMATTR InstName R1
SYMATTR Value 300
SYMBOL cap 208 0 R0
SYMATTR InstName C1
SYMATTR Value 35p
SYMBOL cap -288 32 R0
SYMATTR InstName C2
SYMATTR Value 12p
SYMBOL ADG5412F -112 0 R0
SYMATTR InstName U1
TEXT -368 192 Left 2 !.tran 0.1m
