Version 4
SHEET 1 2844 1336
WIRE -112 -128 -112 -144
WIRE -624 -64 -624 -80
WIRE -400 -48 -432 -48
WIRE -272 -48 -320 -48
WIRE -208 -48 -272 -48
WIRE 48 -48 -16 -48
WIRE 128 -48 48 -48
WIRE 224 -48 128 -48
WIRE 128 -16 128 -48
WIRE 224 0 224 -48
WIRE -240 16 -272 16
WIRE -208 16 -240 16
WIRE 32 16 -16 16
WIRE -624 32 -624 16
WIRE -272 32 -272 16
WIRE 32 48 32 16
WIRE 128 80 128 64
WIRE 224 80 224 64
WIRE -272 112 -272 96
WIRE -624 128 -624 112
WIRE -160 144 -160 128
WIRE -64 144 -64 128
WIRE 32 144 32 128
WIRE -624 224 -624 208
FLAG -624 224 0
FLAG -624 32 0
FLAG -624 -80 +V
FLAG -624 112 -V
FLAG -432 -48 0
FLAG -160 144 -V
FLAG -112 -144 +V
FLAG -64 144 0
FLAG 32 144 0
FLAG 128 80 0
FLAG 224 80 0
FLAG -272 112 0
FLAG 48 -48 vDrain
FLAG -272 -48 vSource
FLAG -240 16 vFF
FLAG 32 16 vIN
SYMBOL voltage -624 -80 R0
WINDOW 123 0 0 Left 0
WINDOW 39 0 0 Left 0
SYMATTR InstName V1
SYMATTR Value 15
SYMBOL voltage -624 112 R0
WINDOW 123 0 0 Left 0
WINDOW 39 0 0 Left 0
SYMATTR InstName V2
SYMATTR Value -15
SYMBOL voltage -304 -48 M270
WINDOW 0 32 56 VTop 2
WINDOW 3 -32 56 VBottom 2
WINDOW 123 0 0 Left 0
WINDOW 39 0 0 Left 0
SYMATTR InstName V3
SYMATTR Value 10
SYMBOL voltage 32 32 R0
WINDOW 3 17 95 Left 2
SYMATTR Value pulse(0 5 0 20n 20n 10u 20u)
SYMATTR InstName V4
SYMBOL res 112 -32 R0
SYMATTR InstName R1
SYMATTR Value 301
SYMBOL cap 208 0 R0
SYMATTR InstName C1
SYMATTR Value 36p
SYMBOL cap -288 32 R0
SYMATTR InstName C2
SYMATTR Value 12p
SYMBOL ADG5412BF -112 0 R0
SYMATTR InstName U2
TEXT -368 192 Left 2 !.tran 0.1m
TEXT -648 -320 Left 2 ;Note:\nInterrupt Flag recovery time with pull-up resistor not included\nQinj not included\nOnly one channel included\nSwitch shown for a logic 0 input
