Version 4
SHEET 1 2172 1360
WIRE 256 -448 208 -448
WIRE 400 -448 336 -448
WIRE 256 -336 208 -336
WIRE 400 -336 400 -448
WIRE 400 -336 320 -336
WIRE 400 -240 400 -336
WIRE 96 -176 64 -176
WIRE 240 -176 176 -176
WIRE 272 -176 240 -176
WIRE -32 -112 -48 -112
WIRE 240 -112 48 -112
WIRE 272 -112 240 -112
WIRE -144 -48 -176 -48
WIRE 240 -48 -64 -48
WIRE 272 -48 240 -48
WIRE 96 16 64 16
WIRE 240 16 176 16
WIRE 272 16 240 16
WIRE 560 48 528 48
WIRE 640 48 560 48
WIRE 720 48 640 48
WIRE -32 80 -48 80
WIRE 240 80 48 80
WIRE 272 80 240 80
WIRE 640 80 640 48
WIRE 720 96 720 48
WIRE -144 144 -176 144
WIRE 240 144 -64 144
WIRE 272 144 240 144
WIRE 640 192 640 160
WIRE 720 192 720 160
WIRE 80 208 64 208
WIRE 240 208 160 208
WIRE 272 208 240 208
WIRE -32 272 -48 272
WIRE 240 272 48 272
WIRE 272 272 240 272
WIRE -144 336 -176 336
WIRE 240 336 -64 336
WIRE 272 336 240 336
WIRE 80 400 64 400
WIRE 240 400 160 400
WIRE 272 400 240 400
WIRE -32 464 -48 464
WIRE 240 464 48 464
WIRE 272 464 240 464
WIRE -144 528 -176 528
WIRE 240 528 -64 528
WIRE 272 528 240 528
WIRE 560 560 528 560
WIRE 640 560 560 560
WIRE 720 560 640 560
WIRE 80 592 64 592
WIRE 240 592 160 592
WIRE 272 592 240 592
WIRE 640 592 640 560
WIRE 720 608 720 560
WIRE -32 656 -48 656
WIRE 240 656 48 656
WIRE 272 656 240 656
WIRE 640 704 640 672
WIRE 720 704 720 672
WIRE -144 720 -176 720
WIRE 240 720 -64 720
WIRE 272 720 240 720
WIRE 80 784 64 784
WIRE 240 784 160 784
WIRE 272 784 240 784
WIRE -32 848 -64 848
WIRE 240 848 48 848
WIRE 272 848 240 848
WIRE 560 848 528 848
WIRE 656 848 560 848
WIRE 656 896 656 848
WIRE -144 912 -176 912
WIRE 240 912 -64 912
WIRE 272 912 240 912
WIRE 80 976 64 976
WIRE 240 976 160 976
WIRE 272 976 240 976
WIRE 656 1008 656 976
WIRE 464 1072 464 1040
WIRE 224 1120 176 1120
WIRE 336 1120 336 1040
WIRE 336 1120 288 1120
WIRE 224 1232 176 1232
WIRE 336 1232 336 1120
WIRE 336 1232 304 1232
FLAG 208 -448 0
FLAG 208 -336 0
FLAG 176 1232 0
FLAG 176 1120 0
FLAG 656 1008 0
FLAG 640 192 0
FLAG 720 192 0
FLAG 464 1072 0
FLAG 640 704 0
FLAG 720 704 0
FLAG 64 -176 0
FLAG -48 -112 0
FLAG -176 -48 0
FLAG 64 16 0
FLAG -176 336 0
FLAG 64 400 0
FLAG -48 80 0
FLAG -176 144 0
FLAG 64 208 0
FLAG -48 272 0
FLAG -48 464 0
FLAG -176 528 0
FLAG 64 592 0
FLAG -48 656 0
FLAG 64 976 0
FLAG -176 720 0
FLAG 64 784 0
FLAG -64 848 0
FLAG -176 912 0
FLAG 240 848 A0
FLAG 240 912 A1
FLAG 240 976 A2
FLAG 240 -176 S1A
FLAG 240 -112 S2A
FLAG 240 -48 S3A
FLAG 240 16 S4A
FLAG 240 80 S5A
FLAG 240 144 S6A
FLAG 240 208 S7A
FLAG 240 272 S8A
FLAG 240 336 S1B
FLAG 240 400 S2B
FLAG 240 464 S3B
FLAG 240 528 S4B
FLAG 240 592 S5B
FLAG 240 656 S6B
FLAG 240 720 S7B
FLAG 240 784 S8B
FLAG 560 848 EN
FLAG 560 560 DB
FLAG 560 48 DA
SYMBOL voltage 352 -448 R90
WINDOW 0 -32 56 VBottom 2
WINDOW 3 32 56 VTop 2
WINDOW 123 0 0 Left 0
WINDOW 39 0 0 Left 0
SYMATTR InstName V18
SYMATTR Value 15
SYMBOL voltage 320 1232 R90
WINDOW 0 -32 56 VBottom 2
WINDOW 3 32 56 VTop 2
WINDOW 123 0 0 Left 0
WINDOW 39 0 0 Left 0
SYMATTR InstName V17
SYMATTR Value -15
SYMBOL voltage 656 880 R0
WINDOW 0 58 2 Top 2
WINDOW 3 213 128 Bottom 2
WINDOW 123 0 0 Left 0
WINDOW 39 0 0 Left 0
SYMATTR InstName V19
SYMATTR Value PULSE(0 5 0 10n 10n 10u 20u)
SYMBOL res 624 64 R0
SYMATTR InstName R1
SYMATTR Value 301
SYMBOL cap 320 -352 R90
WINDOW 0 0 32 VBottom 2
WINDOW 3 32 32 VTop 2
SYMATTR InstName C1
SYMATTR Value 0.1µ
SYMBOL cap 288 1104 R90
WINDOW 0 0 32 VBottom 2
WINDOW 3 32 32 VTop 2
SYMATTR InstName C2
SYMATTR Value 0.1µ
SYMBOL cap 704 96 R0
SYMATTR InstName C3
SYMATTR Value 36p
SYMBOL res 624 576 R0
SYMATTR InstName R2
SYMATTR Value 301
SYMBOL cap 704 608 R0
SYMATTR InstName C4
SYMATTR Value 36p
SYMBOL voltage 192 -176 R90
WINDOW 0 -32 56 VBottom 2
WINDOW 3 32 56 VTop 2
WINDOW 123 0 0 Left 0
WINDOW 39 0 0 Left 0
SYMATTR InstName V1
SYMATTR Value 1
SYMBOL voltage 64 -112 R90
WINDOW 0 -32 56 VBottom 2
WINDOW 3 32 56 VTop 2
WINDOW 123 0 0 Left 0
WINDOW 39 0 0 Left 0
SYMATTR InstName V2
SYMATTR Value 2
SYMBOL voltage -48 -48 R90
WINDOW 0 -32 56 VBottom 2
WINDOW 3 32 56 VTop 2
WINDOW 123 0 0 Left 0
WINDOW 39 0 0 Left 0
SYMATTR InstName V3
SYMATTR Value 3
SYMBOL voltage 192 16 R90
WINDOW 0 -32 56 VBottom 2
WINDOW 3 32 56 VTop 2
WINDOW 123 0 0 Left 0
WINDOW 39 0 0 Left 0
SYMATTR InstName V4
SYMATTR Value 4
SYMBOL voltage -48 336 R90
WINDOW 0 -32 56 VBottom 2
WINDOW 3 32 56 VTop 2
WINDOW 123 0 0 Left 0
WINDOW 39 0 0 Left 0
SYMATTR InstName V5
SYMATTR Value 0
SYMBOL voltage 176 400 R90
WINDOW 0 -32 56 VBottom 2
WINDOW 3 32 56 VTop 2
WINDOW 123 0 0 Left 0
WINDOW 39 0 0 Left 0
SYMATTR InstName V6
SYMATTR Value 5
SYMBOL voltage 64 80 R90
WINDOW 0 -32 56 VBottom 2
WINDOW 3 32 56 VTop 2
WINDOW 123 0 0 Left 0
WINDOW 39 0 0 Left 0
SYMATTR InstName V7
SYMATTR Value 1
SYMBOL voltage -48 144 R90
WINDOW 0 -32 56 VBottom 2
WINDOW 3 32 56 VTop 2
WINDOW 123 0 0 Left 0
WINDOW 39 0 0 Left 0
SYMATTR InstName V8
SYMATTR Value 2
SYMBOL voltage 176 208 R90
WINDOW 0 -32 56 VBottom 2
WINDOW 3 32 56 VTop 2
WINDOW 123 0 0 Left 0
WINDOW 39 0 0 Left 0
SYMATTR InstName V9
SYMATTR Value 3
SYMBOL voltage 64 272 R90
WINDOW 0 -32 56 VBottom 2
WINDOW 3 32 56 VTop 2
WINDOW 123 0 0 Left 0
WINDOW 39 0 0 Left 0
SYMATTR InstName V10
SYMATTR Value 4
SYMBOL voltage 64 464 R90
WINDOW 0 -32 56 VBottom 2
WINDOW 3 32 56 VTop 2
WINDOW 123 0 0 Left 0
WINDOW 39 0 0 Left 0
SYMATTR InstName V11
SYMATTR Value 1
SYMBOL voltage -48 528 R90
WINDOW 0 -32 56 VBottom 2
WINDOW 3 32 56 VTop 2
WINDOW 123 0 0 Left 0
WINDOW 39 0 0 Left 0
SYMATTR InstName V12
SYMATTR Value 2
SYMBOL voltage 176 592 R90
WINDOW 0 -32 56 VBottom 2
WINDOW 3 32 56 VTop 2
WINDOW 123 0 0 Left 0
WINDOW 39 0 0 Left 0
SYMATTR InstName V13
SYMATTR Value 3
SYMBOL voltage 64 656 R90
WINDOW 0 -32 56 VBottom 2
WINDOW 3 32 56 VTop 2
WINDOW 123 0 0 Left 0
WINDOW 39 0 0 Left 0
SYMATTR InstName V14
SYMATTR Value 4
SYMBOL voltage 176 976 R90
WINDOW 0 -32 56 VBottom 2
WINDOW 3 32 56 VTop 2
WINDOW 123 0 0 Left 0
WINDOW 39 0 0 Left 0
SYMATTR InstName V15
SYMATTR Value 0
SYMBOL voltage -48 720 R90
WINDOW 0 -32 56 VBottom 2
WINDOW 3 32 56 VTop 2
WINDOW 123 0 0 Left 0
WINDOW 39 0 0 Left 0
SYMATTR InstName V16
SYMATTR Value 1
SYMBOL voltage 176 784 R90
WINDOW 0 -32 56 VBottom 2
WINDOW 3 32 56 VTop 2
WINDOW 123 0 0 Left 0
WINDOW 39 0 0 Left 0
SYMATTR InstName V20
SYMATTR Value 2
SYMBOL voltage 64 848 R90
WINDOW 0 -32 56 VBottom 2
WINDOW 3 32 56 VTop 2
WINDOW 123 0 0 Left 0
WINDOW 39 0 0 Left 0
SYMATTR InstName V21
SYMATTR Value 3
SYMBOL voltage -48 912 R90
WINDOW 0 -32 56 VBottom 2
WINDOW 3 32 56 VTop 2
WINDOW 123 0 0 Left 0
WINDOW 39 0 0 Left 0
SYMATTR InstName V22
SYMATTR Value 4
SYMBOL ADG5207 400 80 R0
SYMATTR InstName U1
TEXT 408 1144 Left 2 !.tran 100u
TEXT -240 -552 Left 2 ;Note:\nSwitch shown for a logic 0 input\nCrosstalk at -97 dB
