Version 4
SHEET 1 2172 1360
WIRE 256 -448 208 -448
WIRE 400 -448 336 -448
WIRE 256 -336 208 -336
WIRE 400 -336 400 -448
WIRE 400 -336 320 -336
WIRE 400 -240 400 -336
WIRE -176 -144 -208 -144
WIRE 208 -144 -96 -144
WIRE 240 -144 208 -144
WIRE -304 -80 -320 -80
WIRE 208 -80 -224 -80
WIRE 240 -80 208 -80
WIRE 608 -48 560 -48
WIRE 640 -48 608 -48
WIRE 752 -48 640 -48
WIRE -416 -16 -448 -16
WIRE 208 -16 -336 -16
WIRE 240 -16 208 -16
WIRE 640 -16 640 -48
WIRE 752 0 752 -48
WIRE -208 48 -288 48
WIRE 208 48 -128 48
WIRE 240 48 208 48
WIRE 640 96 640 64
WIRE 752 96 752 64
WIRE -48 112 -240 112
WIRE 208 112 32 112
WIRE 240 112 208 112
WIRE 592 128 560 128
WIRE 656 128 592 128
WIRE 64 176 -208 176
WIRE 208 176 144 176
WIRE 240 176 208 176
WIRE 656 208 656 128
WIRE 464 304 464 272
WIRE 656 320 656 288
WIRE 192 368 144 368
WIRE 336 368 336 272
WIRE 336 368 272 368
WIRE 192 480 144 480
WIRE 336 480 336 368
WIRE 336 480 256 480
FLAG 208 -448 0
FLAG 208 -336 0
FLAG 656 320 0
FLAG 640 96 0
FLAG 752 96 0
FLAG 464 304 0
FLAG -208 -144 0
FLAG -320 -80 0
FLAG -448 -16 0
FLAG -288 48 0
FLAG -240 112 0
FLAG 208 112 A0
FLAG 208 176 A1
FLAG 208 -144 S1
FLAG 208 -80 S2
FLAG 208 -16 S3
FLAG 208 48 S4
FLAG 592 128 EN
FLAG -208 176 0
FLAG 608 -48 D
FLAG 144 368 0
FLAG 144 480 0
SYMBOL voltage 352 -448 R90
WINDOW 0 -32 56 VBottom 2
WINDOW 3 32 56 VTop 2
WINDOW 123 0 0 Left 0
WINDOW 39 0 0 Left 0
SYMATTR InstName V7
SYMATTR Value 15
SYMBOL voltage 656 192 R0
WINDOW 0 40 0 Top 2
WINDOW 3 213 128 Bottom 2
WINDOW 123 0 0 Left 0
WINDOW 39 0 0 Left 0
SYMATTR InstName V9
SYMATTR Value PULSE(0 5 0 10n 10n 10u 20u)
SYMBOL res 624 -32 R0
SYMATTR InstName R1
SYMATTR Value 301
SYMBOL cap 320 -352 R90
WINDOW 0 0 32 VBottom 2
WINDOW 3 32 32 VTop 2
SYMATTR InstName C1
SYMATTR Value 0.1µ
SYMBOL cap 736 0 R0
SYMATTR InstName C3
SYMATTR Value 36p
SYMBOL voltage -80 -144 R90
WINDOW 0 -32 56 VBottom 2
WINDOW 3 32 56 VTop 2
WINDOW 123 0 0 Left 0
WINDOW 39 0 0 Left 0
SYMATTR InstName V1
SYMATTR Value 1
SYMBOL voltage -208 -80 R90
WINDOW 0 -32 56 VBottom 2
WINDOW 3 32 56 VTop 2
WINDOW 123 0 0 Left 0
WINDOW 39 0 0 Left 0
SYMATTR InstName V2
SYMATTR Value 2
SYMBOL voltage -320 -16 R90
WINDOW 0 -32 56 VBottom 2
WINDOW 3 32 56 VTop 2
WINDOW 123 0 0 Left 0
WINDOW 39 0 0 Left 0
SYMATTR InstName V3
SYMATTR Value 3
SYMBOL voltage -112 48 R90
WINDOW 0 -32 56 VBottom 2
WINDOW 3 32 56 VTop 2
WINDOW 123 0 0 Left 0
WINDOW 39 0 0 Left 0
SYMATTR InstName V4
SYMATTR Value 4
SYMBOL voltage 48 112 R90
WINDOW 0 -32 56 VBottom 2
WINDOW 3 32 56 VTop 2
WINDOW 123 0 0 Left 0
WINDOW 39 0 0 Left 0
SYMATTR InstName V5
SYMATTR Value 0
SYMBOL voltage 160 176 R90
WINDOW 0 -32 56 VBottom 2
WINDOW 3 32 56 VTop 2
WINDOW 123 0 0 Left 0
WINDOW 39 0 0 Left 0
SYMATTR InstName V6
SYMATTR Value 0
SYMBOL voltage 288 368 R90
WINDOW 0 -41 50 VBottom 2
WINDOW 3 32 56 VTop 2
WINDOW 123 0 0 Left 0
WINDOW 39 0 0 Left 0
SYMATTR InstName V8
SYMATTR Value -15
SYMBOL cap 256 464 R90
WINDOW 0 0 32 VBottom 2
WINDOW 3 32 32 VTop 2
SYMATTR InstName C2
SYMATTR Value 0.1µ
SYMBOL ADG5404 400 48 R0
SYMATTR InstName U1
TEXT 408 376 Left 2 !.tran 100u
TEXT -296 -624 Left 2 ;Notes:\nCharge injection not included\nSwitch parameter modeled at 15V dual supplies
