Version 4
SHEET 1 2172 1360
WIRE 256 -448 208 -448
WIRE 400 -448 336 -448
WIRE 256 -336 208 -336
WIRE 400 -336 400 -448
WIRE 400 -336 320 -336
WIRE 400 -240 400 -336
WIRE 96 -176 64 -176
WIRE 240 -176 176 -176
WIRE 272 -176 240 -176
WIRE -32 -112 -48 -112
WIRE 240 -112 48 -112
WIRE 272 -112 240 -112
WIRE -144 -48 -176 -48
WIRE 240 -48 -64 -48
WIRE 272 -48 240 -48
WIRE 96 16 64 16
WIRE 240 16 176 16
WIRE 272 16 240 16
WIRE -32 80 -48 80
WIRE 240 80 48 80
WIRE 272 80 240 80
WIRE -144 144 -176 144
WIRE 240 144 -64 144
WIRE 272 144 240 144
WIRE 80 208 64 208
WIRE 240 208 160 208
WIRE 272 208 240 208
WIRE -32 272 -48 272
WIRE 240 272 48 272
WIRE 272 272 240 272
WIRE 544 304 528 304
WIRE 608 304 544 304
WIRE 688 304 608 304
WIRE -144 336 -176 336
WIRE 240 336 -64 336
WIRE 272 336 240 336
WIRE 608 336 608 304
WIRE 688 352 688 304
WIRE 80 400 64 400
WIRE 240 400 160 400
WIRE 272 400 240 400
WIRE 608 448 608 416
WIRE 688 448 688 416
WIRE -32 464 -48 464
WIRE 240 464 48 464
WIRE 272 464 240 464
WIRE -144 528 -176 528
WIRE 240 528 -64 528
WIRE 272 528 240 528
WIRE 80 592 64 592
WIRE 240 592 160 592
WIRE 272 592 240 592
WIRE -32 656 -48 656
WIRE 240 656 48 656
WIRE 272 656 240 656
WIRE -144 720 -176 720
WIRE 240 720 -64 720
WIRE 272 720 240 720
WIRE 80 784 64 784
WIRE 240 784 160 784
WIRE 272 784 240 784
WIRE -32 848 -64 848
WIRE 240 848 48 848
WIRE 272 848 240 848
WIRE 560 848 528 848
WIRE 656 848 560 848
WIRE 656 896 656 848
WIRE -144 912 -176 912
WIRE 240 912 -64 912
WIRE 272 912 240 912
WIRE 80 976 64 976
WIRE 240 976 160 976
WIRE 272 976 240 976
WIRE 656 1008 656 976
WIRE -48 1040 -64 1040
WIRE 240 1040 32 1040
WIRE 272 1040 240 1040
WIRE 464 1136 464 1104
WIRE 224 1184 176 1184
WIRE 336 1184 336 1104
WIRE 336 1184 288 1184
WIRE 224 1296 176 1296
WIRE 336 1296 336 1184
WIRE 336 1296 304 1296
FLAG 208 -448 0
FLAG 208 -336 0
FLAG 176 1296 0
FLAG 176 1184 0
FLAG 656 1008 0
FLAG 608 448 0
FLAG 688 448 0
FLAG 464 1136 0
FLAG 64 -176 0
FLAG -48 -112 0
FLAG -176 -48 0
FLAG 64 16 0
FLAG -176 336 0
FLAG 64 400 0
FLAG -48 80 0
FLAG -176 144 0
FLAG 64 208 0
FLAG -48 272 0
FLAG -48 464 0
FLAG -176 528 0
FLAG 64 592 0
FLAG -48 656 0
FLAG 64 976 0
FLAG -176 720 0
FLAG 64 784 0
FLAG -64 848 0
FLAG -176 912 0
FLAG 240 848 A0
FLAG 240 912 A1
FLAG 240 976 A2
FLAG 240 -176 S1
FLAG 240 -112 S2
FLAG 240 -48 S3
FLAG 240 16 S4
FLAG 240 80 S5
FLAG 240 144 S6
FLAG 240 208 S7
FLAG 240 272 S8
FLAG 240 336 S9
FLAG 240 400 S10
FLAG 240 464 S11
FLAG 240 528 S12
FLAG 240 592 S13
FLAG 240 656 S14
FLAG 240 720 S15
FLAG 240 784 S16
FLAG -64 1040 0
FLAG 240 1040 A3
FLAG 544 304 D
FLAG 560 848 EN
SYMBOL voltage 352 -448 R90
WINDOW 0 -32 56 VBottom 2
WINDOW 3 32 56 VTop 2
WINDOW 123 0 0 Left 0
WINDOW 39 0 0 Left 0
SYMATTR InstName V18
SYMATTR Value 15
SYMBOL voltage 320 1296 R90
WINDOW 0 -32 56 VBottom 2
WINDOW 3 32 56 VTop 2
WINDOW 123 0 0 Left 0
WINDOW 39 0 0 Left 0
SYMATTR InstName V17
SYMATTR Value -15
SYMBOL voltage 656 880 R0
WINDOW 0 58 2 Top 2
WINDOW 3 213 128 Bottom 2
WINDOW 123 0 0 Left 0
WINDOW 39 0 0 Left 0
SYMATTR InstName V19
SYMATTR Value PULSE(0 5 0 10n 10n 10u 20u)
SYMBOL res 592 320 R0
SYMATTR InstName R1
SYMATTR Value 301
SYMBOL cap 320 -352 R90
WINDOW 0 0 32 VBottom 2
WINDOW 3 32 32 VTop 2
SYMATTR InstName C1
SYMATTR Value 0.1µ
SYMBOL cap 288 1168 R90
WINDOW 0 0 32 VBottom 2
WINDOW 3 32 32 VTop 2
SYMATTR InstName C2
SYMATTR Value 0.1µ
SYMBOL cap 672 352 R0
SYMATTR InstName C3
SYMATTR Value 36p
SYMBOL ADG5206 400 80 R0
SYMATTR InstName U1
SYMBOL voltage 192 -176 R90
WINDOW 0 -32 56 VBottom 2
WINDOW 3 32 56 VTop 2
WINDOW 123 0 0 Left 0
WINDOW 39 0 0 Left 0
SYMATTR InstName V1
SYMATTR Value 1
SYMBOL voltage 64 -112 R90
WINDOW 0 -32 56 VBottom 2
WINDOW 3 32 56 VTop 2
WINDOW 123 0 0 Left 0
WINDOW 39 0 0 Left 0
SYMATTR InstName V2
SYMATTR Value 2
SYMBOL voltage -48 -48 R90
WINDOW 0 -32 56 VBottom 2
WINDOW 3 32 56 VTop 2
WINDOW 123 0 0 Left 0
WINDOW 39 0 0 Left 0
SYMATTR InstName V3
SYMATTR Value 3
SYMBOL voltage 192 16 R90
WINDOW 0 -32 56 VBottom 2
WINDOW 3 32 56 VTop 2
WINDOW 123 0 0 Left 0
WINDOW 39 0 0 Left 0
SYMATTR InstName V4
SYMATTR Value 4
SYMBOL voltage -48 336 R90
WINDOW 0 -32 56 VBottom 2
WINDOW 3 32 56 VTop 2
WINDOW 123 0 0 Left 0
WINDOW 39 0 0 Left 0
SYMATTR InstName V5
SYMATTR Value 0
SYMBOL voltage 176 400 R90
WINDOW 0 -32 56 VBottom 2
WINDOW 3 32 56 VTop 2
WINDOW 123 0 0 Left 0
WINDOW 39 0 0 Left 0
SYMATTR InstName V6
SYMATTR Value 5
SYMBOL voltage 64 80 R90
WINDOW 0 -32 56 VBottom 2
WINDOW 3 32 56 VTop 2
WINDOW 123 0 0 Left 0
WINDOW 39 0 0 Left 0
SYMATTR InstName V7
SYMATTR Value 1
SYMBOL voltage -48 144 R90
WINDOW 0 -32 56 VBottom 2
WINDOW 3 32 56 VTop 2
WINDOW 123 0 0 Left 0
WINDOW 39 0 0 Left 0
SYMATTR InstName V8
SYMATTR Value 2
SYMBOL voltage 176 208 R90
WINDOW 0 -32 56 VBottom 2
WINDOW 3 32 56 VTop 2
WINDOW 123 0 0 Left 0
WINDOW 39 0 0 Left 0
SYMATTR InstName V9
SYMATTR Value 3
SYMBOL voltage 64 272 R90
WINDOW 0 -32 56 VBottom 2
WINDOW 3 32 56 VTop 2
WINDOW 123 0 0 Left 0
WINDOW 39 0 0 Left 0
SYMATTR InstName V10
SYMATTR Value 4
SYMBOL voltage 64 464 R90
WINDOW 0 -32 56 VBottom 2
WINDOW 3 32 56 VTop 2
WINDOW 123 0 0 Left 0
WINDOW 39 0 0 Left 0
SYMATTR InstName V11
SYMATTR Value 1
SYMBOL voltage -48 528 R90
WINDOW 0 -32 56 VBottom 2
WINDOW 3 32 56 VTop 2
WINDOW 123 0 0 Left 0
WINDOW 39 0 0 Left 0
SYMATTR InstName V12
SYMATTR Value 2
SYMBOL voltage 176 592 R90
WINDOW 0 -32 56 VBottom 2
WINDOW 3 32 56 VTop 2
WINDOW 123 0 0 Left 0
WINDOW 39 0 0 Left 0
SYMATTR InstName V13
SYMATTR Value 3
SYMBOL voltage 64 656 R90
WINDOW 0 -32 56 VBottom 2
WINDOW 3 32 56 VTop 2
WINDOW 123 0 0 Left 0
WINDOW 39 0 0 Left 0
SYMATTR InstName V14
SYMATTR Value 4
SYMBOL voltage 176 976 R90
WINDOW 0 -32 56 VBottom 2
WINDOW 3 32 56 VTop 2
WINDOW 123 0 0 Left 0
WINDOW 39 0 0 Left 0
SYMATTR InstName V15
SYMATTR Value 0
SYMBOL voltage -48 720 R90
WINDOW 0 -32 56 VBottom 2
WINDOW 3 32 56 VTop 2
WINDOW 123 0 0 Left 0
WINDOW 39 0 0 Left 0
SYMATTR InstName V16
SYMATTR Value 1
SYMBOL voltage 176 784 R90
WINDOW 0 -32 56 VBottom 2
WINDOW 3 32 56 VTop 2
WINDOW 123 0 0 Left 0
WINDOW 39 0 0 Left 0
SYMATTR InstName V20
SYMATTR Value 2
SYMBOL voltage 64 848 R90
WINDOW 0 -32 56 VBottom 2
WINDOW 3 32 56 VTop 2
WINDOW 123 0 0 Left 0
WINDOW 39 0 0 Left 0
SYMATTR InstName V21
SYMATTR Value 3
SYMBOL voltage -48 912 R90
WINDOW 0 -32 56 VBottom 2
WINDOW 3 32 56 VTop 2
WINDOW 123 0 0 Left 0
WINDOW 39 0 0 Left 0
SYMATTR InstName V22
SYMATTR Value 4
SYMBOL voltage 48 1040 R90
WINDOW 0 -32 56 VBottom 2
WINDOW 3 32 56 VTop 2
WINDOW 123 0 0 Left 0
WINDOW 39 0 0 Left 0
SYMATTR InstName V23
SYMATTR Value 0
TEXT 408 1208 Left 2 !.tran 100u
TEXT -296 -624 Left 2 ;Notes:\nSwitch shown for a logic 0 input\nCrosstalk at -103dB
