Version 4
SHEET 1 880 680
WIRE 224 80 224 48
WIRE -208 144 -208 128
WIRE -48 160 -80 160
WIRE 96 160 32 160
WIRE 128 160 96 160
WIRE 352 160 320 160
WIRE 400 160 352 160
WIRE 496 160 400 160
WIRE 400 192 400 160
WIRE 496 208 496 160
WIRE 96 224 -16 224
WIRE 128 224 96 224
WIRE -208 240 -208 224
WIRE 400 288 400 272
WIRE 496 288 496 272
WIRE -208 336 -208 320
WIRE -16 336 -16 224
WIRE 288 352 288 336
WIRE 160 368 160 336
WIRE -208 432 -208 416
WIRE -16 480 -16 416
FLAG -208 432 0
FLAG -208 240 0
FLAG -208 128 +V
FLAG -208 320 -V
FLAG -80 160 0
FLAG -16 480 0
FLAG 400 288 0
FLAG 496 288 0
FLAG 224 48 +V
FLAG 160 368 -V
FLAG 288 352 0
FLAG 96 160 vS
FLAG 352 160 vD
FLAG 96 224 vIN
SYMBOL voltage -208 128 R0
WINDOW 123 0 0 Left 0
WINDOW 39 0 0 Left 0
SYMATTR InstName V1
SYMATTR Value 20
SYMBOL voltage -208 320 R0
WINDOW 123 0 0 Left 0
WINDOW 39 0 0 Left 0
SYMATTR InstName V2
SYMATTR Value -20
SYMBOL voltage 48 160 M270
WINDOW 0 32 56 VTop 2
WINDOW 3 -32 56 VBottom 2
WINDOW 123 0 0 Left 0
WINDOW 39 0 0 Left 0
SYMATTR InstName V3
SYMATTR Value 14
SYMBOL voltage -16 320 R0
WINDOW 3 19 116 Left 2
SYMATTR Value pulse(0 5 0 20n 20n 10u 20u)
SYMATTR InstName V4
SYMBOL res 384 176 R0
SYMATTR InstName R1
SYMATTR Value 301
SYMBOL cap 480 208 R0
SYMATTR InstName C1
SYMATTR Value 36p
SYMBOL ADG6412 224 208 R0
SYMATTR InstName U1
TEXT 8 464 Left 2 !.tran 75u
TEXT -224 -56 Left 2 ;Note:\nSwitch shown for a logic 0 input\nOnly one channel included\nCrosstalk parameter not included
