Version 4
SHEET 1 2172 1360
WIRE 480 -464 400 -464
WIRE 592 -464 544 -464
WIRE 400 -352 400 -464
WIRE 464 -352 400 -352
WIRE 592 -352 544 -352
WIRE 400 -240 400 -352
WIRE 224 -176 160 -176
WIRE 272 -176 224 -176
WIRE 224 -112 80 -112
WIRE 272 -112 224 -112
WIRE 576 -80 528 -80
WIRE 640 -80 576 -80
WIRE 736 -80 640 -80
WIRE 640 -64 640 -80
WIRE 224 -48 0 -48
WIRE 272 -48 224 -48
WIRE 736 -48 736 -80
WIRE 224 16 -80 16
WIRE 272 16 224 16
WIRE 640 32 640 16
WIRE 736 32 736 16
WIRE 224 80 160 80
WIRE 272 80 224 80
WIRE 224 144 80 144
WIRE 272 144 224 144
WIRE 576 176 528 176
WIRE 640 176 576 176
WIRE 736 176 640 176
WIRE 640 192 640 176
WIRE 224 208 0 208
WIRE 272 208 224 208
WIRE 736 208 736 176
WIRE 224 272 -80 272
WIRE 272 272 224 272
WIRE 640 288 640 272
WIRE 736 288 736 272
WIRE 224 336 160 336
WIRE 272 336 224 336
WIRE 576 336 528 336
WIRE 656 336 576 336
WIRE 656 384 656 336
WIRE 224 400 80 400
WIRE 272 400 224 400
WIRE 656 496 656 464
WIRE 336 544 336 512
WIRE 336 544 224 544
WIRE 464 544 464 512
WIRE 224 560 224 544
WIRE 336 560 336 544
WIRE 224 656 224 624
WIRE 336 656 336 640
FLAG 592 -352 0
FLAG 592 -464 0
FLAG 80 -176 0
FLAG 0 -112 0
FLAG -80 -48 0
FLAG -160 16 0
FLAG 80 80 0
FLAG 0 144 0
FLAG -80 208 0
FLAG -160 272 0
FLAG 656 496 0
FLAG 640 32 0
FLAG 736 32 0
FLAG 464 544 0
FLAG 80 336 0
FLAG 0 400 0
FLAG 576 -80 vDA
FLAG 576 336 vEN
FLAG 224 336 vA0
FLAG 224 400 vA1
FLAG 224 -176 vS1A
FLAG 224 -112 vS2A
FLAG 224 -48 vS3A
FLAG 224 16 vS4A
FLAG 224 80 vS1B
FLAG 224 144 vS2B
FLAG 224 208 vS3B
FLAG 224 272 vS4B
FLAG 640 288 0
FLAG 736 288 0
FLAG 576 176 vDB
FLAG 336 656 0
FLAG 224 656 0
SYMBOL voltage 176 -176 R90
WINDOW 0 -32 56 VBottom 2
WINDOW 3 -1 15 VTop 2
WINDOW 123 0 0 Left 0
WINDOW 39 0 0 Left 0
SYMATTR InstName V1
SYMATTR Value 1
SYMBOL voltage 96 -112 R90
WINDOW 0 -32 56 VBottom 2
WINDOW 3 3 14 VTop 2
WINDOW 123 0 0 Left 0
WINDOW 39 0 0 Left 0
SYMATTR InstName V2
SYMATTR Value 2
SYMBOL voltage 16 -48 R90
WINDOW 0 -32 56 VBottom 2
WINDOW 3 1 16 VTop 2
WINDOW 123 0 0 Left 0
WINDOW 39 0 0 Left 0
SYMATTR InstName V3
SYMATTR Value 1
SYMBOL voltage -64 16 R90
WINDOW 0 -32 56 VBottom 2
WINDOW 3 1 17 VTop 2
WINDOW 123 0 0 Left 0
WINDOW 39 0 0 Left 0
SYMATTR InstName V4
SYMATTR Value 2
SYMBOL voltage 176 80 R90
WINDOW 0 -32 56 VBottom 2
WINDOW 3 8 16 VTop 2
WINDOW 123 0 0 Left 0
WINDOW 39 0 0 Left 0
SYMATTR InstName V5
SYMATTR Value 1
SYMBOL voltage 96 144 R90
WINDOW 0 -32 56 VBottom 2
WINDOW 3 5 14 VTop 2
WINDOW 123 0 0 Left 0
WINDOW 39 0 0 Left 0
SYMATTR InstName V6
SYMATTR Value 2
SYMBOL voltage 16 208 R90
WINDOW 0 -32 56 VBottom 2
WINDOW 3 2 13 VTop 2
WINDOW 123 0 0 Left 0
WINDOW 39 0 0 Left 0
SYMATTR InstName V7
SYMATTR Value 1
SYMBOL voltage -64 272 R90
WINDOW 0 -32 56 VBottom 2
WINDOW 3 1 8 VTop 2
WINDOW 123 0 0 Left 0
WINDOW 39 0 0 Left 0
SYMATTR InstName V8
SYMATTR Value 2
SYMBOL voltage 448 -352 M90
WINDOW 0 -32 56 VBottom 2
WINDOW 3 32 56 VTop 2
WINDOW 123 0 0 Left 0
WINDOW 39 0 0 Left 0
SYMATTR InstName V11
SYMATTR Value 2.5
SYMBOL voltage 656 368 R0
WINDOW 0 18 8 Left 2
WINDOW 3 22 104 Left 2
WINDOW 123 0 0 Left 0
WINDOW 39 0 0 Left 0
SYMATTR InstName V13
SYMATTR Value PULSE(0 3 0 10n 10n 10u 20u)
SYMBOL res 624 -80 R0
SYMATTR InstName R1
SYMATTR Value 301
SYMBOL cap 480 -448 R270
WINDOW 0 32 32 VTop 2
WINDOW 3 0 32 VBottom 2
SYMATTR InstName C1
SYMATTR Value 0.1µ
SYMBOL cap 720 -48 R0
SYMATTR InstName C3
SYMATTR Value 36p
SYMBOL voltage 176 336 R90
WINDOW 0 -32 56 VBottom 2
WINDOW 3 32 56 VTop 2
WINDOW 123 0 0 Left 0
WINDOW 39 0 0 Left 0
SYMATTR InstName V9
SYMATTR Value 0
SYMBOL voltage 96 400 R90
WINDOW 0 -32 56 VBottom 2
WINDOW 3 32 56 VTop 2
WINDOW 123 0 0 Left 0
WINDOW 39 0 0 Left 0
SYMATTR InstName V10
SYMATTR Value 0
SYMBOL res 624 176 R0
SYMATTR InstName R2
SYMATTR Value 301
SYMBOL cap 720 208 R0
SYMATTR InstName C4
SYMATTR Value 36p
SYMBOL voltage 336 544 R0
WINDOW 123 0 0 Left 0
WINDOW 39 0 0 Left 0
SYMATTR InstName V12
SYMATTR Value -2.5
SYMBOL cap 208 560 R0
SYMATTR InstName C2
SYMATTR Value 0.1µ
SYMBOL ADG759 400 80 R0
SYMATTR InstName U1
TEXT 704 600 Left 2 !.tran 100u
TEXT -296 -416 Left 2 ;Notes:\nPerformance modeled at 2.5V dual supplies\nPin capacitance not included
