Version 4
SHEET 1 1160 936
WIRE 272 -32 -224 -32
WIRE -224 -16 -224 -32
WIRE 272 32 272 -32
WIRE -224 80 -224 64
WIRE 112 112 -224 112
WIRE 672 112 432 112
WIRE 768 112 672 112
WIRE -224 128 -224 112
WIRE 672 128 672 112
WIRE 768 128 768 112
WIRE -224 224 -224 208
WIRE 672 224 672 208
WIRE 768 224 768 192
WIRE 112 240 -32 240
WIRE 480 240 432 240
WIRE 512 240 480 240
WIRE 624 240 592 240
WIRE 480 272 480 240
WIRE 624 272 624 240
WIRE -32 336 -32 240
WIRE -32 336 -224 336
WIRE 480 352 480 336
WIRE -224 368 -224 336
WIRE 624 368 624 352
WIRE 320 432 320 416
WIRE 224 448 224 416
WIRE -224 464 -224 448
WIRE 224 544 224 528
FLAG 224 544 0
FLAG -224 80 0
FLAG -224 464 0
FLAG 320 432 0
FLAG 480 352 0
FLAG 624 368 0
FLAG -224 224 0
FLAG 768 224 0
FLAG 672 224 0
SYMBOL voltage -224 -32 R0
WINDOW 123 0 0 Left 0
WINDOW 39 0 0 Left 0
SYMATTR InstName V1
SYMATTR Value 2.5
SYMBOL voltage 224 432 R0
WINDOW 123 0 0 Left 0
WINDOW 39 0 0 Left 0
SYMATTR InstName V2
SYMATTR Value -2.5
SYMBOL voltage -224 352 M0
WINDOW 3 -416 90 Left 2
WINDOW 123 0 0 Left 0
WINDOW 39 0 0 Left 0
WINDOW 0 -58 27 Left 2
SYMATTR Value PULSE(0 1.5 0 10u 10u 10m 20m)
SYMATTR InstName V3
SYMBOL res 496 256 R270
WINDOW 0 32 56 VTop 2
WINDOW 3 0 56 VBottom 2
SYMATTR InstName R1
SYMATTR Value 1k
SYMBOL cap 464 272 R0
SYMATTR InstName C1
SYMATTR Value 10p
SYMBOL voltage 624 256 R0
WINDOW 3 26 94 Left 2
WINDOW 123 0 0 Left 0
WINDOW 39 0 0 Left 0
SYMATTR Value 2.5
SYMATTR InstName V4
SYMBOL res 656 112 R0
SYMATTR InstName R3
SYMATTR Value 301
SYMBOL cap 752 128 R0
SYMATTR InstName C2
SYMATTR Value 36p
SYMBOL ADG7421F 272 224 R0
SYMATTR InstName U1
SYMBOL voltage -224 112 R0
WINDOW 123 0 0 Left 0
WINDOW 39 0 0 Left 0
SYMATTR InstName V5
SYMATTR Value 1.5
TEXT -232 536 Left 2 !.tran 120m
TEXT 424 496 Left 2 ;Note:\nThis part is modeled at 3 V supply operation\nCrosstalk is not included
