Version 4
SHEET 1 936 832
WIRE 256 112 240 112
WIRE 240 160 240 112
WIRE -80 224 -112 224
WIRE 112 224 0 224
WIRE 144 224 112 224
WIRE 384 224 336 224
WIRE 464 224 384 224
WIRE 576 224 464 224
WIRE 464 256 464 224
WIRE 576 256 576 224
WIRE 112 288 48 288
WIRE 144 288 112 288
WIRE -176 304 -192 304
WIRE -192 336 -192 304
WIRE 48 336 48 288
WIRE 464 352 464 336
WIRE 576 352 576 320
WIRE 240 432 240 400
WIRE -192 464 -192 416
WIRE 48 464 48 416
FLAG -112 224 0
FLAG 48 464 0
FLAG 464 352 0
FLAG 240 432 0
FLAG 384 224 vD
FLAG 112 224 vS
FLAG 112 288 vIN
FLAG 576 352 0
FLAG -192 304 v+
FLAG 240 112 v+
FLAG -192 464 0
SYMBOL voltage 16 224 M270
WINDOW 0 32 56 VTop 2
WINDOW 3 -32 56 VBottom 2
WINDOW 123 0 0 Left 0
WINDOW 39 0 0 Left 0
SYMATTR InstName V1
SYMATTR Value 3
SYMBOL res 448 240 R0
SYMATTR InstName R1
SYMATTR Value 301
SYMBOL voltage 48 320 R0
WINDOW 123 0 0 Left 0
WINDOW 39 0 0 Left 0
WINDOW 3 30 177 Left 2
SYMATTR Value PULSE(0 3 0 10n 10n 980n 2u)
SYMATTR InstName V2
SYMBOL cap 560 256 R0
SYMATTR InstName C1
SYMATTR Value 36p
SYMBOL voltage -192 320 R0
WINDOW 123 0 0 Left 0
WINDOW 39 0 0 Left 0
SYMATTR InstName V3
SYMATTR Value 5
SYMBOL ADG711 240 272 R0
SYMATTR InstName U1
TEXT 336 424 Left 2 !.tran 10u
TEXT -360 -16 Left 2 ;Note:\nSwitch shown for a logic 1 input\nParameter performance modeled at 5V single supply\nOny one channel is modeled
