Version 4
SHEET 1 2888 1548
WIRE -1600 -336 -1600 -368
WIRE -1696 -272 -1936 -272
WIRE -1936 -256 -1936 -272
WIRE -1408 -240 -1504 -240
WIRE -1296 -240 -1408 -240
WIRE -1408 -224 -1408 -240
WIRE -1296 -224 -1296 -240
WIRE -1696 -208 -1840 -208
WIRE -1840 -192 -1840 -208
WIRE -1936 -160 -1936 -176
WIRE -1696 -144 -1760 -144
WIRE -1472 -144 -1504 -144
WIRE -1472 -128 -1472 -144
WIRE -1408 -128 -1408 -144
WIRE -1296 -128 -1296 -160
WIRE -1840 -96 -1840 -112
WIRE -1760 -64 -1760 -144
WIRE -1536 -16 -1536 -32
WIRE -1664 0 -1664 -32
WIRE -1760 48 -1760 16
FLAG -1936 -160 0
FLAG -1840 -96 0
FLAG -1760 48 0
FLAG -1600 -368 +V
FLAG -1408 -128 0
FLAG -1536 -16 0
FLAG -1296 -128 0
FLAG -2048 -64 0
FLAG -2048 -144 -V
FLAG -1472 -128 0
FLAG -2144 -64 0
FLAG -2144 -144 +V
FLAG -1664 0 -V
SYMBOL voltage -1936 -272 R0
WINDOW 123 0 0 Left 0
WINDOW 39 0 0 Left 0
SYMATTR InstName V1
SYMATTR Value 1.5
SYMBOL voltage -1840 -208 R0
WINDOW 123 0 0 Left 0
WINDOW 39 0 0 Left 0
SYMATTR InstName V2
SYMATTR Value 0
SYMBOL voltage -1760 -80 R0
WINDOW 3 24 136 Left 2
WINDOW 123 0 0 Left 0
WINDOW 39 0 0 Left 0
SYMATTR Value PULSE(0 3 0 20n 20n 10u 20u)
SYMATTR InstName V3
SYMBOL res -1424 -240 R0
SYMATTR InstName R1
SYMATTR Value 301
SYMBOL cap -1312 -224 R0
SYMATTR InstName C1
SYMATTR Value 36p
SYMBOL voltage -2048 -160 R0
WINDOW 123 0 0 Left 0
WINDOW 39 0 0 Left 0
SYMATTR InstName V4
SYMATTR Value -2.5
SYMBOL voltage -2144 -160 R0
WINDOW 123 0 0 Left 0
WINDOW 39 0 0 Left 0
SYMATTR InstName V5
SYMATTR Value 2.5
SYMBOL ADG786 -1600 -192 R0
SYMATTR InstName U1
TEXT -1360 -40 Left 2 !.tran 100u
TEXT -2160 -472 Left 2 ;Note:\nCharge Injection not included\nOnly One channel included\nSwitch shown for a logic 0 input
