Version 4
SHEET 1 2144 2724
WIRE 912 96 912 48
WIRE 496 176 496 144
WIRE 672 176 624 176
WIRE 816 176 752 176
WIRE 1120 176 1008 176
WIRE 1120 192 1120 176
WIRE 816 240 704 240
WIRE 496 288 496 256
WIRE 1120 288 1120 272
WIRE 704 304 704 240
WIRE 912 384 912 352
WIRE 704 432 704 384
FLAG 624 176 0
FLAG 1120 288 0
FLAG 912 384 0
FLAG 704 432 0
FLAG 912 48 +V
FLAG 496 288 0
FLAG 496 144 +V
SYMBOL voltage 768 176 R90
WINDOW 0 -32 56 VBottom 2
WINDOW 3 32 56 VTop 2
WINDOW 123 0 0 Left 0
WINDOW 39 0 0 Left 0
SYMATTR InstName V1
SYMATTR Value 2
SYMBOL voltage 704 288 R0
WINDOW 3 44 180 Left 2
WINDOW 123 0 0 Left 0
WINDOW 39 0 0 Left 0
SYMATTR Value PULSE(3.3 0 0 10u 10u 10m 20m)
SYMATTR InstName V2
SYMBOL voltage 496 160 R0
WINDOW 123 0 0 Left 0
WINDOW 39 0 0 Left 0
SYMATTR InstName V3
SYMATTR Value 3.3
SYMBOL res 1104 176 R0
SYMATTR InstName R1
SYMATTR Value 301
SYMBOL ADGM1144 912 224 R0
SYMATTR InstName U1
TEXT 752 504 Left 2 !.tran 100m
