Version 4
SHEET 1 2144 2724
WIRE 912 96 912 48
WIRE 640 176 592 176
WIRE 768 176 720 176
WIRE 816 176 768 176
WIRE 1056 176 1008 176
WIRE 1104 176 1056 176
WIRE 1104 208 1104 176
WIRE 784 240 704 240
WIRE 816 240 784 240
WIRE 704 304 704 240
WIRE 528 320 528 288
WIRE 1104 320 1104 288
WIRE 912 384 912 352
WIRE 528 432 528 400
WIRE 704 432 704 384
FLAG 592 176 0
FLAG 912 384 0
FLAG 704 432 0
FLAG 912 48 +V
FLAG 528 432 0
FLAG 528 288 +V
FLAG 1104 320 0
FLAG 768 176 sRF1A
FLAG 1056 176 sRFCA
FLAG 784 240 vIN1
SYMBOL voltage 736 176 R90
WINDOW 0 -32 56 VBottom 2
WINDOW 3 32 56 VTop 2
WINDOW 123 0 0 Left 0
WINDOW 39 0 0 Left 0
SYMATTR InstName V1
SYMATTR Value 1.5
SYMBOL voltage 704 288 R0
WINDOW 3 44 180 Left 2
WINDOW 123 0 0 Left 0
WINDOW 39 0 0 Left 0
SYMATTR Value PULSE(0 3.3 0 10u 10u 10m 20m)
SYMATTR InstName V2
SYMBOL voltage 528 304 R0
WINDOW 123 0 0 Left 0
WINDOW 39 0 0 Left 0
SYMATTR InstName V3
SYMATTR Value 3.3
SYMBOL res 1088 192 R0
SYMATTR InstName R1
SYMATTR Value 50
SYMBOL ADGM1121 912 224 R0
SYMATTR InstName U1
TEXT 752 504 Left 2 !.tran 50m
TEXT 360 -80 Left 2 ;Note:\nOnly one channel is modelled\nSPI interface not included\nSwitch shown for a logic 0 input
