Version 4
SHEET 1 2172 1360
WIRE 256 -448 208 -448
WIRE 400 -448 336 -448
WIRE 256 -336 208 -336
WIRE 400 -336 400 -448
WIRE 400 -336 320 -336
WIRE 400 -240 400 -336
WIRE 96 -176 64 -176
WIRE 240 -176 176 -176
WIRE 272 -176 240 -176
WIRE -32 -112 -48 -112
WIRE 240 -112 48 -112
WIRE 272 -112 240 -112
WIRE -144 -48 -176 -48
WIRE 240 -48 -64 -48
WIRE 272 -48 240 -48
WIRE 96 16 64 16
WIRE 240 16 176 16
WIRE 272 16 240 16
WIRE 608 48 528 48
WIRE 640 48 608 48
WIRE 752 48 640 48
WIRE -32 80 -48 80
WIRE 240 80 48 80
WIRE 272 80 240 80
WIRE 640 80 640 48
WIRE 752 96 752 48
WIRE -144 144 -176 144
WIRE 240 144 -64 144
WIRE 272 144 240 144
WIRE 640 192 640 160
WIRE 752 192 752 160
WIRE 96 208 64 208
WIRE 240 208 176 208
WIRE 272 208 240 208
WIRE -32 272 -48 272
WIRE 240 272 48 272
WIRE 272 272 240 272
WIRE -144 336 -176 336
WIRE 240 336 -64 336
WIRE 272 336 240 336
WIRE 560 336 528 336
WIRE 656 336 560 336
WIRE 656 384 656 336
WIRE -32 400 -48 400
WIRE 240 400 48 400
WIRE 272 400 240 400
WIRE 96 464 64 464
WIRE 240 464 176 464
WIRE 272 464 240 464
WIRE 656 496 656 464
WIRE 464 544 464 512
WIRE 192 608 144 608
WIRE 336 608 336 512
WIRE 336 608 272 608
WIRE 192 720 144 720
WIRE 336 720 336 608
WIRE 336 720 256 720
FLAG 208 -448 0
FLAG 208 -336 0
FLAG 656 496 0
FLAG 640 192 0
FLAG 752 192 0
FLAG 464 544 0
FLAG 64 -176 0
FLAG -48 -112 0
FLAG -176 -48 0
FLAG 64 16 0
FLAG -48 80 0
FLAG -176 144 0
FLAG 64 208 0
FLAG -48 272 0
FLAG 64 464 0
FLAG -176 336 0
FLAG 240 336 A0
FLAG 240 400 A1
FLAG 240 464 A2
FLAG 240 -176 S1
FLAG 240 -112 S2
FLAG 240 -48 S3
FLAG 240 16 S4
FLAG 240 80 S5
FLAG 240 144 S6
FLAG 240 208 S7
FLAG 240 272 S8
FLAG 560 336 EN
FLAG -48 400 0
FLAG 608 48 D
FLAG 144 608 0
FLAG 144 720 0
SYMBOL voltage 352 -448 R90
WINDOW 0 -32 56 VBottom 2
WINDOW 3 32 56 VTop 2
WINDOW 123 0 0 Left 0
WINDOW 39 0 0 Left 0
SYMATTR InstName V12
SYMATTR Value 15
SYMBOL voltage 656 368 R0
WINDOW 0 38 -3 Top 2
WINDOW 3 177 118 Bottom 2
WINDOW 123 0 0 Left 0
WINDOW 39 0 0 Left 0
SYMATTR InstName V14
SYMATTR Value PULSE(0 5 0 10n 10n 10u 20u)
SYMBOL res 624 64 R0
SYMATTR InstName R1
SYMATTR Value 301
SYMBOL cap 320 -352 R90
WINDOW 0 0 32 VBottom 2
WINDOW 3 32 32 VTop 2
SYMATTR InstName C1
SYMATTR Value 0.1µ
SYMBOL cap 736 96 R0
SYMATTR InstName C3
SYMATTR Value 36p
SYMBOL voltage 192 -176 R90
WINDOW 0 -32 56 VBottom 2
WINDOW 3 32 56 VTop 2
WINDOW 123 0 0 Left 0
WINDOW 39 0 0 Left 0
SYMATTR InstName V1
SYMATTR Value 1
SYMBOL voltage 64 -112 R90
WINDOW 0 -32 56 VBottom 2
WINDOW 3 32 56 VTop 2
WINDOW 123 0 0 Left 0
WINDOW 39 0 0 Left 0
SYMATTR InstName V2
SYMATTR Value 2
SYMBOL voltage -48 -48 R90
WINDOW 0 -32 56 VBottom 2
WINDOW 3 32 56 VTop 2
WINDOW 123 0 0 Left 0
WINDOW 39 0 0 Left 0
SYMATTR InstName V3
SYMATTR Value 3
SYMBOL voltage 192 16 R90
WINDOW 0 -32 56 VBottom 2
WINDOW 3 32 56 VTop 2
WINDOW 123 0 0 Left 0
WINDOW 39 0 0 Left 0
SYMATTR InstName V4
SYMATTR Value 4
SYMBOL voltage 64 80 R90
WINDOW 0 -32 56 VBottom 2
WINDOW 3 32 56 VTop 2
WINDOW 123 0 0 Left 0
WINDOW 39 0 0 Left 0
SYMATTR InstName V5
SYMATTR Value 5
SYMBOL voltage -48 144 R90
WINDOW 0 -32 56 VBottom 2
WINDOW 3 32 56 VTop 2
WINDOW 123 0 0 Left 0
WINDOW 39 0 0 Left 0
SYMATTR InstName V6
SYMATTR Value 6
SYMBOL voltage 192 208 R90
WINDOW 0 -32 56 VBottom 2
WINDOW 3 32 56 VTop 2
WINDOW 123 0 0 Left 0
WINDOW 39 0 0 Left 0
SYMATTR InstName V7
SYMATTR Value 7
SYMBOL voltage 64 272 R90
WINDOW 0 -32 56 VBottom 2
WINDOW 3 32 56 VTop 2
WINDOW 123 0 0 Left 0
WINDOW 39 0 0 Left 0
SYMATTR InstName V8
SYMATTR Value 8
SYMBOL voltage 192 464 R90
WINDOW 0 -32 56 VBottom 2
WINDOW 3 32 56 VTop 2
WINDOW 123 0 0 Left 0
WINDOW 39 0 0 Left 0
SYMATTR InstName V11
SYMATTR Value 0
SYMBOL voltage -48 336 R90
WINDOW 0 -32 56 VBottom 2
WINDOW 3 32 56 VTop 2
WINDOW 123 0 0 Left 0
WINDOW 39 0 0 Left 0
SYMATTR InstName V9
SYMATTR Value 3
SYMBOL voltage 64 400 R90
WINDOW 0 -32 56 VBottom 2
WINDOW 3 32 56 VTop 2
WINDOW 123 0 0 Left 0
WINDOW 39 0 0 Left 0
SYMATTR InstName V10
SYMATTR Value 4
SYMBOL voltage 288 608 R90
WINDOW 0 -32 56 VBottom 2
WINDOW 3 32 56 VTop 2
WINDOW 123 0 0 Left 0
WINDOW 39 0 0 Left 0
SYMATTR InstName V13
SYMATTR Value -15
SYMBOL cap 256 704 R90
WINDOW 0 0 32 VBottom 2
WINDOW 3 32 32 VTop 2
SYMATTR InstName C2
SYMATTR Value 0.1µ
SYMBOL ADGS1208 400 80 R0
SYMATTR InstName U1
TEXT 408 616 Left 2 !.tran 100u
TEXT -296 -624 Left 2 ;Notes:\nCharge injection not included\nSwitch parameter modeled at 15V dual supplies\nBandwidth modeled at 344 MHz only\nCrosstalk = -97dB
