Version 4
SHEET 1 936 832
WIRE 256 112 240 112
WIRE 240 160 240 112
WIRE -80 224 -112 224
WIRE 112 224 0 224
WIRE 144 224 112 224
WIRE 384 224 336 224
WIRE 464 224 384 224
WIRE 576 224 464 224
WIRE 464 256 464 224
WIRE 576 256 576 224
WIRE 112 288 48 288
WIRE 144 288 112 288
WIRE -352 352 -368 352
WIRE -128 352 -144 352
WIRE 464 352 464 336
WIRE 576 352 576 320
WIRE -368 432 -368 352
WIRE -144 432 -144 352
WIRE 48 432 48 288
WIRE 192 432 192 400
WIRE 192 432 176 432
WIRE 288 432 288 400
WIRE -368 560 -368 512
WIRE -144 560 -144 512
WIRE 48 560 48 512
FLAG -112 224 0
FLAG 48 560 0
FLAG 464 352 0
FLAG 288 432 0
FLAG 384 224 vD
FLAG 112 224 vS
FLAG 112 288 vIN
FLAG 576 352 0
FLAG -368 352 v+
FLAG 240 112 v+
FLAG -368 560 0
FLAG -144 352 v-
FLAG -144 560 0
FLAG 192 432 v-
SYMBOL voltage 16 224 M270
WINDOW 0 32 56 VTop 2
WINDOW 3 -32 56 VBottom 2
WINDOW 123 0 0 Left 0
WINDOW 39 0 0 Left 0
SYMATTR InstName V1
SYMATTR Value SINE(0 15 25)
SYMBOL res 448 240 R0
SYMATTR InstName R1
SYMATTR Value 301
SYMBOL voltage 48 416 R0
WINDOW 123 0 0 Left 0
WINDOW 39 0 0 Left 0
WINDOW 3 23 115 Left 2
SYMATTR Value PULSE(0 3 0 1n 1n 100m 200m)
SYMATTR InstName V2
SYMBOL cap 560 256 R0
SYMATTR InstName C1
SYMATTR Value 36p
SYMBOL voltage -368 416 R0
WINDOW 123 0 0 Left 0
WINDOW 39 0 0 Left 0
SYMATTR InstName V3
SYMATTR Value 20
SYMBOL ADGS6414D 240 272 R0
SYMATTR InstName U1
SYMBOL voltage -144 416 R0
WINDOW 123 0 0 Left 0
WINDOW 39 0 0 Left 0
SYMATTR InstName V4
SYMATTR Value -20
TEXT 416 456 Left 2 !.tran 0.5
TEXT -368 -80 Left 2 ;Notes:\nSPI functionality is not included\nCharge Injection and Pin Capacitance are not modeled\nOny one channel is modeled\nSwitch shown for a logic 0 input\nParameter performance modeled at 20V dual supply
