Version 4
SHEET 1 2844 1336
WIRE -112 -112 -112 -128
WIRE -368 -48 -400 -48
WIRE -208 -48 -288 -48
WIRE 48 -48 -16 -48
WIRE -528 -32 -528 -48
WIRE 48 -16 48 -48
WIRE -208 16 -336 16
WIRE -528 64 -528 48
WIRE 48 80 48 64
WIRE -336 96 -336 16
WIRE -160 144 -160 128
WIRE -64 144 -64 128
WIRE -528 160 -528 144
WIRE -336 240 -336 176
WIRE -528 256 -528 240
FLAG -528 256 0
FLAG -528 64 0
FLAG -528 -48 +V
FLAG -528 144 -V
FLAG -400 -48 0
FLAG -160 144 -V
FLAG -112 -128 +V
FLAG -64 144 0
FLAG -336 240 0
FLAG 48 80 0
SYMBOL voltage -528 -48 R0
WINDOW 123 0 0 Left 0
WINDOW 39 0 0 Left 0
SYMATTR InstName V1
SYMATTR Value 15
SYMBOL voltage -528 144 R0
WINDOW 123 0 0 Left 0
WINDOW 39 0 0 Left 0
SYMATTR InstName V2
SYMATTR Value -15
SYMBOL voltage -272 -48 M270
WINDOW 0 32 56 VTop 2
WINDOW 3 -32 56 VBottom 2
SYMATTR InstName V3
SYMATTR Value sine(0 5 1K)
SYMBOL voltage -336 80 R0
WINDOW 3 19 116 Left 2
SYMATTR Value pulse(0 3.3 0 1u 1u 5m 10m)
SYMATTR InstName V4
SYMBOL res 32 -32 R0
SYMATTR InstName R1
SYMATTR Value 1K
SYMBOL ADG1412 -112 0 R0
SYMATTR InstName U1
TEXT -544 328 Left 2 !.tran 30m
