Version 4
SHEET 1 11020 6404
WIRE -3728 480 -3744 480
WIRE -3632 480 -3648 480
WIRE -3632 496 -3632 480
WIRE -3904 560 -4016 560
WIRE -3744 560 -3744 480
WIRE -3712 560 -3744 560
WIRE -3504 560 -3552 560
WIRE -4016 576 -4016 560
WIRE -3744 576 -3744 560
WIRE -3712 576 -3712 560
WIRE -3504 576 -3504 560
WIRE -4064 592 -4128 592
WIRE -3904 624 -3904 560
WIRE -3792 624 -3904 624
WIRE -3552 640 -3552 560
WIRE -3552 640 -3616 640
WIRE -4128 672 -4128 592
WIRE -4128 672 -4208 672
WIRE -4016 672 -4016 656
WIRE -3872 672 -4016 672
WIRE -3840 672 -3872 672
WIRE -3792 672 -3840 672
WIRE -3504 672 -3504 656
WIRE -3440 672 -3504 672
WIRE -4016 688 -4016 672
WIRE -3504 688 -3504 672
WIRE -3440 688 -3440 672
WIRE -4208 704 -4208 672
WIRE -4128 704 -4128 672
WIRE -4064 704 -4128 704
WIRE -3552 704 -3616 704
WIRE -3792 720 -3904 720
WIRE -4016 784 -4016 768
WIRE -3904 784 -3904 720
WIRE -3904 784 -4016 784
WIRE -3872 784 -3872 672
WIRE -3552 784 -3552 704
WIRE -3504 784 -3504 768
WIRE -3504 784 -3552 784
WIRE -4208 800 -4208 784
WIRE -3872 912 -3872 864
FLAG -3744 768 0
FLAG -3632 496 0
FLAG -3440 688 0
FLAG -3504 784 VOP
FLAG -3504 560 VON
FLAG -4208 800 0
FLAG -3872 912 0
FLAG -3840 672 VCOM
FLAG -4064 640 0
FLAG -4064 752 0
SYMBOL voltage -3744 480 R270
WINDOW 0 32 56 VTop 2
WINDOW 3 -32 56 VBottom 2
SYMATTR InstName V5
SYMATTR Value 5
SYMBOL voltage -4208 688 R0
SYMATTR InstName V2
SYMATTR Value 0 AC 1
SYMBOL voltage -3872 768 R0
SYMATTR InstName V1
SYMATTR Value 2.5
SYMBOL res -3520 560 R0
SYMATTR InstName R1
SYMATTR Value 50
SYMBOL res -3520 672 R0
SYMATTR InstName R2
SYMATTR Value 50
SYMBOL e -4016 560 R0
SYMATTR InstName E1
SYMATTR Value 0.5
SYMBOL e -4016 672 R0
SYMATTR InstName E2
SYMATTR Value 0.5
SYMBOL ADL5569 -3744 672 R0
SYMATTR InstName U1
TEXT -4232 856 Left 2 !.ac dec 20 1Meg 10G
