Version 4
SHEET 1 880 680
WIRE 160 -96 -32 -96
WIRE -32 -80 -32 -96
WIRE 432 -16 368 -16
WIRE 560 -16 432 -16
WIRE 160 0 160 -96
WIRE -32 16 -32 0
WIRE 432 16 432 -16
WIRE 368 32 368 -16
WIRE 368 32 288 32
WIRE 32 80 -16 80
WIRE 432 128 432 96
WIRE 432 128 288 128
WIRE 320 192 288 192
WIRE 432 192 432 128
WIRE 432 192 320 192
WIRE 432 224 432 192
WIRE -32 240 -272 240
WIRE 32 240 -32 240
WIRE -272 272 -272 240
WIRE 320 288 288 288
WIRE 368 288 320 288
WIRE 160 336 160 320
WIRE 368 336 368 288
WIRE 432 336 432 304
WIRE 432 336 368 336
WIRE 560 336 560 -16
WIRE 560 336 432 336
WIRE -272 384 -272 352
FLAG 160 336 0
FLAG -32 16 0
FLAG -272 384 0
FLAG 320 192 Z
FLAG 320 288 Y
FLAG -32 240 DI
FLAG -16 80 RO
SYMBOL voltage -32 -96 R0
WINDOW 123 0 0 Left 0
WINDOW 39 0 0 Left 0
SYMATTR InstName V1
SYMATTR Value 5
SYMBOL voltage -272 256 R0
SYMATTR InstName V2
SYMATTR Value PULSE(0 5 1u 10n 10n 4.35u 8.7u)
SYMBOL res 416 320 M180
WINDOW 0 36 76 Left 2
WINDOW 3 36 40 Left 2
SYMATTR InstName R1
SYMATTR Value 120
SYMBOL res 416 0 R0
SYMATTR InstName R2
SYMATTR Value 120
SYMBOL ADM4854 160 144 R0
SYMATTR InstName U1
TEXT 248 360 Left 2 !.tran 100u
