Version 4
SHEET 1 880 680
WIRE 128 -16 -48 -16
WIRE 176 -16 128 -16
WIRE 464 -16 400 -16
WIRE 512 -16 464 -16
WIRE 608 -16 592 -16
WIRE -48 0 -48 -16
WIRE -48 96 -48 80
WIRE 128 96 32 96
WIRE 176 96 128 96
WIRE 464 96 400 96
WIRE 512 96 464 96
WIRE 608 96 592 96
WIRE 32 112 32 96
WIRE 32 208 32 192
WIRE 128 208 96 208
WIRE 176 208 128 208
WIRE 96 224 96 208
WIRE 96 320 96 304
WIRE 464 320 400 320
WIRE 512 320 464 320
WIRE 608 320 592 320
WIRE 288 400 288 384
FLAG -48 96 0
FLAG 288 400 0
FLAG 608 -16 0
FLAG 608 96 0
FLAG 608 320 0
FLAG 96 320 0
FLAG 128 -16 VCC
FLAG 128 208 _MR
FLAG 464 -16 WDO
FLAG 464 96 _RESET
FLAG 464 320 _PFO
FLAG 32 208 0
FLAG 128 96 WDI
SYMBOL voltage -48 -16 M0
WINDOW 123 0 0 Left 0
WINDOW 39 0 0 Left 0
SYMATTR InstName V1
SYMATTR Value 5
SYMBOL res 608 -32 R90
WINDOW 0 0 56 VBottom 2
WINDOW 3 32 56 VTop 2
SYMATTR InstName R1
SYMATTR Value 1Meg
SYMBOL res 608 80 R90
WINDOW 0 0 56 VBottom 2
WINDOW 3 32 56 VTop 2
SYMATTR InstName R2
SYMATTR Value 1Meg
SYMBOL res 608 304 R90
WINDOW 0 0 56 VBottom 2
WINDOW 3 32 56 VTop 2
SYMATTR InstName R4
SYMATTR Value 1Meg
SYMBOL voltage 96 208 M0
SYMATTR InstName V2
SYMATTR Value PULSE(3.5 0 1 10n 10n 500m 2 1)
SYMBOL voltage 32 96 M0
WINDOW 123 0 0 Left 0
WINDOW 39 0 0 Left 0
SYMATTR InstName V4
SYMATTR Value PULSE(0 3.5 1m 10n 10n 100m 2)
SYMBOL ADM706 288 144 R0
SYMATTR InstName U2
TEXT 216 456 Left 2 !.tran 4 startup
