Version 4
SHEET 1 880 680
WIRE 96 -16 16 -16
WIRE 176 -16 96 -16
WIRE 16 0 16 -16
WIRE 16 96 16 80
WIRE 464 96 400 96
WIRE 512 96 464 96
WIRE 608 96 592 96
WIRE 96 208 16 208
WIRE 176 208 96 208
WIRE 464 208 400 208
WIRE 512 208 464 208
WIRE 608 208 592 208
WIRE 16 224 16 208
WIRE 16 320 16 304
WIRE 176 320 96 320
WIRE 464 320 400 320
WIRE 512 320 464 320
WIRE 608 320 592 320
WIRE 96 336 96 320
WIRE 288 400 288 384
WIRE 96 432 96 416
FLAG 16 96 0
FLAG 288 400 0
FLAG 608 96 0
FLAG 608 208 0
FLAG 608 320 0
FLAG 16 320 0
FLAG 96 432 0
FLAG 96 -16 VCC
FLAG 96 208 _MR
FLAG 464 96 _RESET
FLAG 464 208 RESET
FLAG 464 320 _PFO
SYMBOL voltage 16 -16 M0
WINDOW 123 0 0 Left 0
WINDOW 39 0 0 Left 0
SYMATTR InstName V1
SYMATTR Value PULSE(0 5 0 1 1 0 2)
SYMBOL res 608 80 R90
WINDOW 0 0 56 VBottom 2
WINDOW 3 32 56 VTop 2
SYMATTR InstName R2
SYMATTR Value 1Meg
SYMBOL res 608 192 R90
WINDOW 0 0 56 VBottom 2
WINDOW 3 32 56 VTop 2
SYMATTR InstName R3
SYMATTR Value 1Meg
SYMBOL res 608 304 R90
WINDOW 0 0 56 VBottom 2
WINDOW 3 32 56 VTop 2
SYMATTR InstName R4
SYMATTR Value 1Meg
SYMBOL voltage 16 208 M0
SYMATTR InstName V2
SYMATTR Value PULSE(3.5 0 1 10n 10n 500m 2 1)
SYMBOL voltage 96 320 R0
SYMATTR InstName V3
SYMATTR Value 5
SYMBOL ADM707 288 144 R0
SYMATTR InstName U2
TEXT 216 456 Left 2 !.tran 2.5 startup
