Version 4
SHEET 1 4024 1172
WIRE -176 -32 -208 -32
WIRE -64 -32 -96 -32
WIRE -16 -32 -64 -32
WIRE 496 16 464 16
WIRE -16 64 -64 64
WIRE 528 112 464 112
WIRE 608 112 528 112
WIRE 736 112 688 112
WIRE 1008 112 944 112
WIRE 1248 112 1184 112
WIRE 1008 128 1008 112
WIRE 1248 128 1248 112
WIRE -176 160 -208 160
WIRE -64 160 -96 160
WIRE -16 160 -64 160
WIRE 528 208 464 208
WIRE 608 208 528 208
WIRE 736 208 736 112
WIRE 736 208 688 208
WIRE 1008 208 1008 192
WIRE 1248 208 1248 192
WIRE -528 256 -560 256
WIRE -64 256 -448 256
WIRE -16 256 -64 256
WIRE 528 304 464 304
WIRE 608 304 528 304
WIRE 736 304 688 304
WIRE 1008 304 944 304
WIRE 1248 304 1184 304
WIRE 1008 320 1008 304
WIRE 1248 320 1248 304
WIRE -528 352 -560 352
WIRE -64 352 -448 352
WIRE -16 352 -64 352
WIRE 528 400 464 400
WIRE 608 400 528 400
WIRE 736 400 736 304
WIRE 736 400 688 400
WIRE 1008 400 1008 384
WIRE 1248 400 1248 384
WIRE -528 448 -560 448
WIRE -64 448 -448 448
WIRE -16 448 -64 448
WIRE 496 496 464 496
WIRE -528 544 -560 544
WIRE -64 544 -448 544
WIRE -16 544 -64 544
WIRE 512 592 464 592
WIRE 544 592 512 592
WIRE 656 592 624 592
WIRE -16 640 -64 640
FLAG -64 64 0
FLAG -64 256 DIN1+
FLAG -64 352 DIN1-
FLAG -64 448 DIN2+
FLAG -64 544 DIN2-
FLAG 528 304 DOUT2+
FLAG 528 400 DOUT2-
FLAG 528 112 DOUT1+
FLAG 528 208 DOUT1-
FLAG -64 160 VIO1
FLAG -64 -32 VDD1
FLAG 512 592 VDD2
FLAG 944 304 DOUT2+
FLAG 1184 304 DOUT2-
FLAG 944 112 DOUT1+
FLAG 1184 112 DOUT1-
FLAG 496 496 0
FLAG -64 640 0
FLAG -560 448 0
FLAG -560 544 0
FLAG -208 160 0
FLAG -208 -32 0
FLAG -560 256 0
FLAG -560 352 0
FLAG 1008 400 0
FLAG 1248 400 0
FLAG 1248 208 0
FLAG 1008 208 0
FLAG 496 16 0
FLAG 656 592 0
SYMBOL ADN4620 224 112 R0
SYMATTR InstName U1
SYMBOL voltage -80 -32 M270
WINDOW 123 0 0 Left 0
WINDOW 39 0 0 Left 0
WINDOW 0 50 69 VLeft 2
WINDOW 3 -50 73 VLeft 2
SYMATTR InstName V1
SYMATTR Value 1.8
SYMBOL voltage 528 592 M90
WINDOW 0 -32 56 VBottom 2
WINDOW 3 32 56 VTop 2
WINDOW 123 0 0 Left 0
WINDOW 39 0 0 Left 0
SYMATTR InstName V2
SYMATTR Value 1.8
SYMBOL voltage -80 160 R90
WINDOW 0 -32 56 VBottom 2
WINDOW 3 32 56 VTop 2
SYMATTR InstName V3
SYMATTR Value 3.3
SYMBOL res 704 96 R90
WINDOW 0 0 56 VBottom 2
WINDOW 3 32 56 VTop 2
SYMATTR InstName R1
SYMATTR Value 49.9
SYMBOL res 704 192 R90
WINDOW 0 0 56 VBottom 2
WINDOW 3 32 56 VTop 2
SYMATTR InstName R2
SYMATTR Value 49.9
SYMBOL voltage -432 448 R90
WINDOW 123 0 0 Left 0
WINDOW 39 0 0 Left 0
WINDOW 0 -23 20 VLeft 2
WINDOW 3 29 21 VLeft 2
SYMATTR InstName V4
SYMATTR Value PULSE(0 0.4 0 2p 2p 400p 800p)
SYMBOL voltage -432 544 M270
WINDOW 123 0 0 Left 0
WINDOW 39 0 0 Left 0
WINDOW 0 22 19 VLeft 2
WINDOW 3 -27 17 VLeft 2
SYMATTR InstName V5
SYMATTR Value PULSE(0.4 0 0 2p 2p 400p 800p)
SYMBOL res 704 288 R90
WINDOW 0 0 56 VBottom 2
WINDOW 3 32 56 VTop 2
SYMATTR InstName R3
SYMATTR Value 49.9
SYMBOL res 592 416 R270
WINDOW 0 32 56 VTop 2
WINDOW 3 0 56 VBottom 2
SYMATTR InstName R4
SYMATTR Value 49.9
SYMBOL cap 992 128 R0
SYMATTR InstName C1
SYMATTR Value 5.1p
SYMBOL cap 1232 192 M180
WINDOW 0 24 56 Left 2
WINDOW 3 24 8 Left 2
SYMATTR InstName C2
SYMATTR Value 5.1p
SYMBOL cap 992 320 R0
SYMATTR InstName C3
SYMATTR Value 5.1p
SYMBOL cap 1232 384 M180
WINDOW 0 24 56 Left 2
WINDOW 3 24 8 Left 2
SYMATTR InstName C4
SYMATTR Value 5.1p
SYMBOL voltage -432 256 R90
WINDOW 123 0 0 Left 0
WINDOW 39 0 0 Left 0
WINDOW 0 -23 20 VLeft 2
WINDOW 3 29 21 VLeft 2
SYMATTR InstName V6
SYMATTR Value PULSE(0.1 0 0 2p 2p 100n 200n)
SYMBOL voltage -432 352 M270
WINDOW 123 0 0 Left 0
WINDOW 39 0 0 Left 0
WINDOW 0 22 19 VLeft 2
WINDOW 3 -27 17 VLeft 2
SYMATTR InstName V7
SYMATTR Value PULSE(0 0.1 0 2p 2p 100n 200n)
TEXT -16 736 Left 2 !.tran 4u
TEXT -16 792 Left 2 ;NOTE 1: The Differential Output Voltage (VOD) is guaranteed only when the Output Load (RL) is 100 Ohms. \n               For any other RL values, VOD versus RL performance is not guaranteed.\nNOTE 2: Capacitors C1-4 model the external load parasitic capacitance.
