Version 4
SHEET 1 1064 680
WIRE -112 32 -128 32
WIRE -16 32 -112 32
WIRE 64 32 -16 32
WIRE 96 32 64 32
WIRE 448 32 352 32
WIRE 592 32 448 32
WIRE 672 32 592 32
WIRE 704 32 672 32
WIRE -128 48 -128 32
WIRE -16 48 -16 32
WIRE 592 48 592 32
WIRE 704 48 704 32
WIRE 448 80 448 32
WIRE 64 96 64 32
WIRE 96 96 64 96
WIRE -128 144 -128 128
WIRE 592 144 592 112
WIRE 704 144 704 128
WIRE -16 176 -16 128
WIRE 96 176 -16 176
WIRE 16 240 0 240
WIRE 96 240 80 240
WIRE 448 240 448 160
WIRE 448 240 352 240
WIRE 448 288 448 240
WIRE 224 304 224 288
WIRE 448 416 448 368
FLAG 224 304 0
FLAG -128 144 0
FLAG 0 240 0
FLAG -112 32 IN
FLAG 704 144 0
FLAG 592 144 0
FLAG 672 32 OUT
FLAG 448 416 0
SYMBOL cap 80 224 R90
WINDOW 0 0 32 VBottom 2
WINDOW 3 32 32 VTop 2
SYMATTR InstName C2
SYMATTR Value 10n
SYMBOL voltage -128 32 R0
WINDOW 123 0 0 Left 0
WINDOW 39 0 0 Left 0
SYMATTR InstName V1
SYMATTR Value 1.8
SYMBOL cap 576 48 R0
SYMATTR InstName C1
SYMATTR Value 4.7µ
SYMATTR SpiceLine Rser=3m
SYMBOL res -32 32 R0
SYMATTR InstName R1
SYMATTR Value 100k
SYMBOL res 432 64 R0
SYMATTR InstName R2
SYMATTR Value 106k
SYMBOL res 432 272 R0
SYMATTR InstName R3
SYMATTR Value 59k
SYMBOL res 688 32 R0
SYMATTR InstName R4
SYMATTR Value 1
SYMBOL ADP1741 224 128 R0
SYMATTR InstName U1
TEXT 128 352 Left 2 !.tran 50m startup
