Version 4
SHEET 1 1096 680
WIRE 64 -64 -64 -64
WIRE 240 -64 64 -64
WIRE 272 -64 240 -64
WIRE 416 -64 352 -64
WIRE 448 -64 416 -64
WIRE 576 -64 512 -64
WIRE 704 -64 576 -64
WIRE 848 -64 704 -64
WIRE -64 -48 -64 -64
WIRE 704 -48 704 -64
WIRE 848 -48 848 -64
WIRE 576 -16 576 -64
WIRE 240 32 240 -64
WIRE -64 48 -64 32
WIRE 704 64 704 16
WIRE 848 64 848 32
WIRE 576 80 576 64
WIRE 576 80 496 80
WIRE 64 96 64 -64
WIRE 96 96 64 96
WIRE 416 96 416 -64
WIRE 416 96 384 96
WIRE 576 96 576 80
WIRE 576 192 576 176
WIRE 96 208 64 208
WIRE 496 208 496 80
WIRE 496 208 384 208
WIRE 96 320 16 320
WIRE 432 320 384 320
WIRE 560 320 432 320
WIRE 16 336 16 320
WIRE 432 352 432 320
WIRE 560 400 560 320
WIRE 16 416 16 400
WIRE 240 416 240 384
WIRE 432 432 432 416
WIRE 432 528 432 512
WIRE 560 528 560 464
FLAG -64 48 0
FLAG -64 -64 IN
FLAG 848 -64 OUT
FLAG 16 416 0
FLAG 576 192 0
FLAG 704 64 0
FLAG 432 528 0
FLAG 64 208 0
FLAG 848 64 0
FLAG 240 416 0
FLAG 560 528 0
SYMBOL cap 0 336 R0
SYMATTR InstName C1
SYMATTR Value 47n
SYMBOL res 560 80 R0
SYMATTR InstName R2
SYMATTR Value 10k
SYMBOL res 560 -32 R0
SYMATTR InstName R1
SYMATTR Value 88.7k
SYMBOL VOLTAGE -64 -64 R0
SYMATTR InstName V1
SYMATTR Value 3
SYMBOL ind 256 -48 R270
WINDOW 0 32 56 VTop 2
WINDOW 3 5 56 VBottom 2
WINDOW 39 -47 62 VTop 2
SYMATTR InstName L1
SYMATTR Value 6.8µ
SYMATTR SpiceLine Rser=173m
SYMBOL cap 688 -48 R0
SYMATTR SpiceLine Rser=2m
SYMATTR InstName C2
SYMATTR Value 33µ
SYMBOL cap 416 352 R0
WINDOW 0 43 22 Left 2
WINDOW 3 43 55 Left 2
WINDOW 39 45 60 Left 2
SYMATTR InstName C3
SYMATTR Value 0.15µ
SYMBOL res 832 -64 R0
SYMATTR InstName Rload
SYMATTR Value 30.1
SYMBOL schottky 448 -80 M90
WINDOW 0 0 32 VBottom 2
WINDOW 3 32 32 VTop 2
SYMATTR InstName D1
SYMATTR Value MBRS340
SYMATTR Description Diode
SYMATTR Type diode
SYMBOL res 416 416 R0
SYMATTR InstName R3
SYMATTR Value 7.87k
SYMBOL cap 544 400 R0
SYMATTR InstName C4
SYMATTR Value 10p
SYMBOL ADP1614 240 208 R0
SYMATTR InstName U1
TEXT 16 512 Left 2 !.tran 20m startup
