Version 4
SHEET 1 1052 680
WIRE 48 -16 -128 -16
WIRE 176 -16 48 -16
WIRE 320 -16 176 -16
WIRE 384 -16 320 -16
WIRE 512 -16 464 -16
WIRE 624 -16 512 -16
WIRE 752 -16 688 -16
WIRE 800 -16 752 -16
WIRE 896 -16 800 -16
WIRE -128 0 -128 -16
WIRE 800 0 800 -16
WIRE 896 0 896 -16
WIRE 512 16 512 -16
WIRE 176 32 176 -16
WIRE 320 32 320 -16
WIRE -128 96 -128 80
WIRE 48 96 48 -16
WIRE 96 96 48 96
WIRE 464 96 384 96
WIRE 800 96 800 64
WIRE 896 96 896 80
WIRE 400 176 384 176
WIRE 512 176 512 112
WIRE 512 176 480 176
WIRE 512 192 512 176
WIRE 752 208 752 -16
WIRE -64 256 -176 256
WIRE 96 256 -64 256
WIRE 400 256 384 256
WIRE -176 272 -176 256
WIRE -64 272 -64 256
WIRE 512 288 512 272
WIRE 96 336 32 336
WIRE 752 336 752 288
WIRE 752 336 384 336
WIRE -64 352 -64 336
WIRE 32 352 32 336
WIRE 752 352 752 336
WIRE -176 368 -176 352
WIRE -176 448 -176 432
WIRE 32 448 32 432
WIRE 752 448 752 432
FLAG -128 96 0
FLAG -128 -16 IN
FLAG 512 288 0
FLAG 896 -16 OUT
FLAG -176 448 0
FLAG 32 448 0
FLAG 752 448 0
FLAG 800 96 0
FLAG -64 352 0
FLAG 400 256 0
FLAG 896 96 0
SYMBOL res -192 256 R0
SYMATTR InstName R1
SYMATTR Value 3.65K
SYMBOL cap -192 368 R0
SYMATTR InstName C1
SYMATTR Value 6.8n
SYMBOL res 16 336 R0
SYMATTR InstName R2
SYMATTR Value 34.8K
SYMBOL res 736 336 R0
SYMATTR InstName R3
SYMATTR Value 8.45K
SYMBOL res 736 192 R0
SYMATTR InstName R4
SYMATTR Value 75K
SYMBOL res 496 176 R0
SYMATTR InstName R5
SYMATTR Value 18m
SYMBOL VOLTAGE -128 -16 R0
SYMATTR InstName V1
SYMATTR Value 5
SYMBOL ind 368 0 R270
WINDOW 0 32 56 VTop 2
WINDOW 3 5 56 VBottom 2
SYMATTR InstName L1
SYMATTR Value 4.7µ
SYMATTR SpiceLine Rser=100m
SYMBOL schottky 624 0 R270
WINDOW 0 32 32 VTop 2
WINDOW 3 0 32 VBottom 2
SYMATTR InstName D1
SYMATTR Value MBRS130L
SYMATTR Description Diode
SYMATTR Type diode
SYMBOL cap 784 0 R0
SYMATTR InstName C2
SYMATTR Value 4.7µ
SYMBOL res 496 160 R90
WINDOW 0 0 56 VBottom 2
WINDOW 3 32 56 VTop 2
SYMATTR InstName R6
SYMATTR Value 953
SYMBOL cap -80 272 R0
SYMATTR InstName C3
SYMATTR Value 330p
SYMBOL nmos 464 16 R0
SYMATTR InstName Q1
SYMATTR Value BSC090N03MS
SYMBOL res 880 -16 R0
SYMATTR InstName Rload
SYMATTR Value 100
SYMBOL ADP1621 240 208 R0
SYMATTR InstName U1
TEXT 448 416 Left 2 !.tran 4.5m startup
