Version 4
SHEET 1 884 680
WIRE 80 96 0 96
WIRE 128 96 80 96
WIRE 160 96 128 96
WIRE 384 96 352 96
WIRE 432 96 384 96
WIRE 512 96 432 96
WIRE 0 112 0 96
WIRE 80 112 80 96
WIRE 432 112 432 96
WIRE 512 112 512 96
WIRE 0 208 0 192
WIRE 80 208 80 176
WIRE 128 208 128 96
WIRE 160 208 128 208
WIRE 384 208 384 96
WIRE 384 208 352 208
WIRE 432 208 432 176
WIRE 512 208 512 192
WIRE 256 272 256 256
FLAG 0 208 0
FLAG 256 272 0
FLAG 432 208 0
FLAG 512 208 0
FLAG 512 96 OUT
FLAG 0 96 IN
FLAG 80 208 0
SYMBOL voltage 0 96 R0
WINDOW 123 24 130 Left 2
WINDOW 39 0 0 Left 0
SYMATTR InstName V1
SYMATTR Value 5.5
SYMBOL cap 416 112 R0
SYMATTR InstName C2
SYMATTR Value 1µ
SYMBOL res 496 96 R0
SYMATTR InstName Rload
SYMATTR Value 100
SYMBOL cap 64 112 R0
SYMATTR InstName C1
SYMATTR Value 1µ
SYMBOL ADP124-1.8 256 208 R0
SYMATTR InstName U1
TEXT 0 272 Left 2 !.tran 10m startup
