Version 4
SHEET 1 884 680
WIRE 80 96 0 96
WIRE 128 96 80 96
WIRE 160 96 128 96
WIRE 400 96 352 96
WIRE 480 96 400 96
WIRE 0 112 0 96
WIRE 80 112 80 96
WIRE 400 112 400 96
WIRE 480 112 480 96
WIRE 0 208 0 192
WIRE 80 208 80 176
WIRE 128 208 128 96
WIRE 160 208 128 208
WIRE 400 208 400 176
WIRE 480 208 480 192
WIRE 256 272 256 256
FLAG 0 208 0
FLAG 256 272 0
FLAG 400 208 0
FLAG 480 208 0
FLAG 480 96 OUT
FLAG 0 96 IN
FLAG 80 208 0
SYMBOL voltage 0 96 R0
WINDOW 123 24 130 Left 2
WINDOW 39 0 0 Left 0
SYMATTR InstName V1
SYMATTR Value 5.5
SYMBOL cap 384 112 R0
SYMATTR InstName C2
SYMATTR Value 1µ
SYMBOL res 464 96 R0
SYMATTR InstName Rload
SYMATTR Value 22
SYMBOL cap 64 112 R0
SYMATTR InstName C1
SYMATTR Value 1µ
SYMBOL ADP121-3.0 256 208 R0
SYMATTR InstName U1
TEXT 0 272 Left 2 !.tran 10m startup
