Version 4
SHEET 1 1096 680
WIRE 32 -48 -112 -48
WIRE 240 -48 32 -48
WIRE 288 -48 240 -48
WIRE 416 -48 368 -48
WIRE 464 -48 416 -48
WIRE 560 -48 528 -48
WIRE 672 -48 560 -48
WIRE 816 -48 672 -48
WIRE -112 -16 -112 -48
WIRE 672 -16 672 -48
WIRE 816 0 816 -48
WIRE 560 16 560 -48
WIRE 240 32 240 -48
WIRE -112 80 -112 64
WIRE 32 96 32 -48
WIRE 96 96 32 96
WIRE 416 96 416 -48
WIRE 416 96 384 96
WIRE 672 96 672 48
WIRE 816 96 816 80
WIRE 560 128 560 96
WIRE 560 128 480 128
WIRE 560 160 560 128
WIRE 0 208 -16 208
WIRE 96 208 80 208
WIRE 480 208 480 128
WIRE 480 208 384 208
WIRE 560 256 560 240
WIRE 96 320 16 320
WIRE 432 320 384 320
WIRE 544 320 432 320
WIRE 432 336 432 320
WIRE 16 352 16 320
WIRE 544 352 544 320
WIRE 240 416 240 384
WIRE 432 432 432 416
WIRE 16 448 16 416
WIRE 544 448 544 416
WIRE 432 528 432 496
FLAG -112 80 0
FLAG -112 -48 IN
FLAG 816 -48 OUT
FLAG 560 256 0
FLAG 672 96 0
FLAG 432 528 0
FLAG -16 208 0
FLAG 816 96 0
FLAG 240 416 0
FLAG 16 448 0
FLAG 544 448 0
SYMBOL res 544 144 R0
SYMATTR InstName R3
SYMATTR Value 10k
SYMBOL res 544 0 R0
SYMATTR InstName R4
SYMATTR Value 71.5k
SYMBOL VOLTAGE -112 -32 R0
SYMATTR InstName V1
SYMATTR Value 5
SYMBOL ind 272 -32 R270
WINDOW 0 32 56 VTop 2
WINDOW 3 5 56 VBottom 2
WINDOW 39 -53 63 VTop 2
SYMATTR InstName L1
SYMATTR Value 15µ
SYMATTR SpiceLine Rser=200m
SYMBOL cap 656 -16 R0
SYMATTR SpiceLine Rser=2m
SYMATTR InstName C2
SYMATTR Value 33µ
SYMBOL cap 416 432 R0
WINDOW 39 24 80 Left 2
SYMATTR InstName C3
SYMATTR Value 33n
SYMBOL res 800 -16 R0
SYMATTR InstName Rload
SYMATTR Value 20
SYMBOL schottky 464 -64 M90
WINDOW 0 0 32 VBottom 2
WINDOW 3 32 32 VTop 2
SYMATTR InstName D1
SYMATTR Value MBRS340
SYMATTR Description Diode
SYMATTR Type diode
SYMBOL res 96 192 R90
WINDOW 0 0 56 VBottom 2
WINDOW 3 32 56 VTop 2
SYMATTR InstName R2
SYMATTR Value 60.4k
SYMBOL cap 0 352 R0
SYMATTR InstName C1
SYMATTR Value 47n
SYMBOL res 416 320 R0
SYMATTR InstName R1
SYMATTR Value 12.1k
SYMBOL cap 528 352 R0
SYMATTR InstName C4
SYMATTR Value 10p
SYMBOL ADP1614-1.3 240 208 R0
SYMATTR InstName U1
TEXT 8 504 Left 2 !.tran 8m startup
