Version 4
SHEET 1 1112 700
WIRE 192 144 96 144
WIRE 208 144 192 144
WIRE 528 144 496 144
WIRE 640 144 608 144
WIRE 720 144 640 144
WIRE 800 144 720 144
WIRE 96 160 96 144
WIRE 720 160 720 144
WIRE 800 160 800 144
WIRE 192 224 192 144
WIRE 208 224 192 224
WIRE 96 256 96 240
WIRE 720 256 720 224
WIRE 800 256 800 240
WIRE 192 304 192 224
WIRE 208 304 192 304
WIRE 640 304 640 144
WIRE 640 304 496 304
WIRE 352 384 352 368
FLAG 96 256 0
FLAG 352 384 0
FLAG 720 256 0
FLAG 800 256 0
FLAG 800 144 OUT
FLAG 96 144 IN
SYMBOL VOLTAGE 96 144 R0
SYMATTR InstName V1
SYMATTR Value 4
SYMBOL ind 512 160 R270
WINDOW 0 32 56 VTop 2
WINDOW 3 5 56 VBottom 2
SYMATTR InstName L1
SYMATTR Value 1µ
SYMATTR SpiceLine Rser=60m
SYMBOL RES 784 144 R0
SYMATTR InstName Rload
SYMATTR Value 2
SYMBOL cap 704 160 R0
SYMATTR InstName C1
SYMATTR Value 10µ
SYMBOL ADP2139-0.8 352 224 R0
SYMATTR InstName U1
TEXT 600 352 Left 2 !.tran .5m startup
