Version 4
SHEET 1 1272 728
WIRE -80 -112 -304 -112
WIRE 176 -112 -80 -112
WIRE 400 -112 176 -112
WIRE -304 -96 -304 -112
WIRE -80 -96 -80 -112
WIRE 176 -80 176 -112
WIRE -304 0 -304 -16
WIRE -160 0 -176 0
WIRE -80 0 -80 -16
WIRE -80 0 -96 0
WIRE 0 0 -80 0
WIRE 400 0 400 -112
WIRE 400 0 352 0
WIRE -80 112 -80 0
WIRE 0 112 -80 112
WIRE 368 112 352 112
WIRE 480 112 448 112
WIRE 544 112 480 112
WIRE 640 112 544 112
WIRE 544 128 544 112
WIRE 640 128 640 112
WIRE -80 224 -80 112
WIRE 0 224 -80 224
WIRE 480 224 480 112
WIRE 480 224 352 224
WIRE 544 224 544 192
WIRE 640 224 640 208
WIRE -96 368 -112 368
WIRE 0 368 -16 368
WIRE 368 368 352 368
WIRE 480 368 480 224
WIRE 480 368 448 368
WIRE 112 496 112 480
WIRE 240 496 240 480
FLAG 112 496 0
FLAG -112 368 0
FLAG -304 0 0
FLAG 544 224 0
FLAG 640 224 0
FLAG 640 112 OUT
FLAG -304 -112 IN
FLAG 240 496 0
FLAG -176 0 0
SYMBOL ind 352 128 R270
WINDOW 0 32 56 VTop 2
WINDOW 3 5 56 VBottom 2
SYMATTR InstName L1
SYMATTR Value 1µ
SYMATTR SpiceLine Rser=6m
SYMBOL res 0 352 R90
WINDOW 0 0 56 VBottom 2
WINDOW 3 32 56 VTop 2
SYMATTR InstName R4
SYMATTR Value 45.3K
SYMBOL voltage -304 -112 R0
WINDOW 123 0 0 Left 2
WINDOW 39 0 0 Left 2
SYMATTR InstName V1
SYMATTR Value 5
SYMBOL res 624 112 R0
SYMATTR InstName Rload
SYMATTR Value 0.5
SYMBOL res 464 352 R90
WINDOW 0 0 56 VBottom 2
WINDOW 3 32 56 VTop 2
SYMATTR InstName R3
SYMATTR Value 100K
SYMBOL res -96 -112 R0
SYMATTR InstName R5
SYMATTR Value 10
SYMBOL cap 528 128 R0
SYMATTR InstName C3
SYMATTR Value 83µ
SYMATTR SpiceLine Rser=2m
SYMBOL cap -96 16 M270
WINDOW 0 32 32 VTop 2
WINDOW 3 0 32 VBottom 2
SYMATTR InstName C1
SYMATTR Value 100n
SYMBOL ADP2164-1.5 176 192 R0
SYMATTR InstName U1
TEXT 488 464 Left 2 !.tran 2m startup
