Version 4
SHEET 1 880 680
WIRE 128 0 48 0
WIRE 288 0 128 0
WIRE 48 16 48 0
WIRE 288 16 288 0
WIRE 128 64 128 0
WIRE 160 64 128 64
WIRE 496 64 416 64
WIRE 640 64 576 64
WIRE 48 112 48 96
WIRE 128 144 128 64
WIRE 160 144 128 144
WIRE 448 144 416 144
WIRE 560 144 528 144
WIRE 640 144 640 64
WIRE 640 144 560 144
WIRE 768 144 640 144
WIRE 560 160 560 144
WIRE 768 160 768 144
WIRE 640 176 640 144
WIRE 128 224 128 144
WIRE 160 224 128 224
WIRE 560 224 416 224
WIRE 560 256 560 224
WIRE 768 256 768 240
WIRE 128 304 128 224
WIRE 160 304 128 304
WIRE 640 304 640 256
WIRE 640 304 416 304
WIRE 640 320 640 304
WIRE 288 368 288 352
WIRE 640 416 640 400
FLAG 640 416 0
FLAG 560 256 0
FLAG 288 368 0
FLAG 48 112 0
FLAG 768 144 OUT
FLAG 768 256 0
FLAG 48 0 IN
SYMBOL res 624 160 R0
SYMATTR Value 13.5K
SYMATTR InstName R1
SYMBOL ind 432 160 R270
WINDOW 0 32 56 VTop 2
WINDOW 3 5 56 VBottom 2
SYMATTR InstName L1
SYMATTR Value 2.2µ
SYMBOL cap 544 160 R0
WINDOW 0 21 15 Left 2
WINDOW 3 22 48 Left 2
SYMATTR InstName C1
SYMATTR Value 20µ
SYMBOL res 624 304 R0
SYMATTR Value 3K
SYMATTR InstName R2
SYMBOL res 592 48 R90
WINDOW 0 0 56 VBottom 2
WINDOW 3 32 56 VTop 2
SYMATTR InstName R3
SYMATTR Value 100K
SYMBOL voltage 48 0 R0
SYMATTR InstName V1
SYMATTR Value 5
SYMBOL res 752 144 R0
SYMATTR Value 1.65
SYMATTR InstName Rload
SYMBOL ADP2120-ADJ 288 272 R0
SYMATTR InstName U1
TEXT 440 384 Left 2 !.tran 1m
