Version 4
SHEET 1 1432 932
WIRE 320 -192 256 -192
WIRE 448 -192 400 -192
WIRE 256 -144 256 -192
WIRE 96 -96 -48 -96
WIRE 112 -96 96 -96
WIRE 448 -96 448 -192
WIRE 448 -96 400 -96
WIRE 528 -96 448 -96
WIRE 656 -96 592 -96
WIRE 768 -96 656 -96
WIRE 848 -96 768 -96
WIRE -48 -80 -48 -96
WIRE 656 -80 656 -96
WIRE 768 -80 768 -96
WIRE 848 -80 848 -96
WIRE -48 16 -48 0
WIRE 96 16 96 -96
WIRE 112 16 96 16
WIRE 656 16 656 0
WIRE 656 16 400 16
WIRE 768 16 768 -16
WIRE 848 16 848 0
WIRE 656 32 656 16
WIRE 96 128 96 16
WIRE 112 128 96 128
WIRE 416 128 400 128
WIRE 496 128 480 128
WIRE 592 128 576 128
WIRE 656 128 656 112
WIRE 96 240 96 128
WIRE 112 240 96 240
WIRE 480 240 400 240
WIRE 560 240 480 240
WIRE 656 240 624 240
WIRE 768 240 656 240
WIRE 848 240 768 240
WIRE 480 256 480 240
WIRE 768 256 768 240
WIRE 848 256 848 240
WIRE 96 352 96 240
WIRE 112 352 96 352
WIRE 480 352 480 336
WIRE 656 352 656 240
WIRE 768 352 768 320
WIRE 848 352 848 336
WIRE 32 464 16 464
WIRE 112 464 96 464
WIRE 656 464 656 432
WIRE 656 464 400 464
WIRE 656 480 656 464
WIRE 16 576 0 576
WIRE 112 576 96 576
WIRE 656 576 656 560
WIRE 656 576 400 576
WIRE 656 592 656 576
WIRE 656 672 656 656
WIRE 112 688 96 688
WIRE 416 688 400 688
WIRE 496 688 480 688
WIRE 592 688 576 688
WIRE 112 800 96 800
WIRE 416 800 400 800
WIRE 256 864 256 848
FLAG 768 16 0
FLAG 848 16 0
FLAG 16 464 0
FLAG 656 672 0
FLAG -48 16 0
FLAG -48 -96 IN
FLAG 848 -96 OUT1
FLAG 656 128 0
FLAG 592 688 0
FLAG 96 800 0
FLAG 256 864 0
FLAG 768 352 0
FLAG 848 352 0
FLAG 848 240 OUT2
FLAG 592 128 0
FLAG 480 352 0
FLAG 96 688 0
FLAG 416 800 0
FLAG 0 576 0
SYMBOL res 640 16 R0
SYMATTR InstName R2
SYMATTR Value 137k
SYMBOL res 640 -96 R0
SYMATTR InstName R1
SYMATTR Value 2.43Meg
SYMBOL res 480 704 R270
WINDOW 0 32 56 VTop 2
WINDOW 3 0 56 VBottom 2
SYMATTR InstName R6
SYMATTR Value 6.8k
SYMBOL cap 416 672 M90
WINDOW 0 0 32 VBottom 2
WINDOW 3 32 32 VTop 2
SYMATTR InstName C5
SYMATTR Value 47n
SYMBOL ind 304 -176 R270
WINDOW 0 32 56 VTop 2
WINDOW 3 5 56 VBottom 2
SYMATTR InstName L1
SYMATTR Value 4.7µ
SYMATTR SpiceLine Rser=40m
SYMBOL schottky 528 -112 M90
WINDOW 0 0 32 VBottom 2
WINDOW 3 32 32 VTop 2
SYMATTR InstName D1
SYMATTR Value MBRS140
SYMATTR Description Diode
SYMATTR Type diode
SYMBOL cap 752 -80 R0
SYMATTR InstName C1
SYMATTR Value 10µ
SYMBOL res 832 -96 R0
SYMATTR InstName Rload1
SYMATTR Value 100
SYMBOL cap 640 592 R0
SYMATTR InstName C4
SYMATTR Value 1µ
SYMBOL cap 96 480 M270
WINDOW 0 32 32 VTop 2
WINDOW 3 0 32 VBottom 2
SYMATTR InstName C6
SYMATTR Value 1µ
SYMBOL VOLTAGE -48 -96 R0
SYMATTR InstName V1
SYMATTR Value 5
SYMBOL res 640 464 R0
SYMATTR InstName R5
SYMATTR Value 118k
SYMBOL res 640 336 R0
SYMATTR InstName R4
SYMATTR Value 2.32Meg
SYMBOL ind 464 240 R0
SYMATTR InstName L2
SYMATTR Value 6.8µ
SYMATTR SpiceLine Rser=40m
SYMBOL schottky 624 224 R90
WINDOW 0 0 32 VBottom 2
WINDOW 3 32 32 VTop 2
SYMATTR InstName D2
SYMATTR Value MBRS140
SYMATTR Description Diode
SYMATTR Type diode
SYMBOL cap 752 256 R0
SYMATTR InstName C3
SYMATTR Value 10µ
SYMBOL res 832 240 R0
SYMATTR InstName Rload2
SYMATTR Value 100
SYMBOL res 480 144 R270
WINDOW 0 32 56 VTop 2
WINDOW 3 0 56 VBottom 2
SYMATTR InstName R3
SYMATTR Value 5.6k
SYMBOL cap 416 112 M90
WINDOW 0 0 32 VBottom 2
WINDOW 3 32 32 VTop 2
SYMATTR InstName C2
SYMATTR Value 47n
SYMBOL ADP5071 256 352 R0
SYMATTR InstName U1
SYMBOL res 112 560 R90
WINDOW 0 0 56 VBottom 2
WINDOW 3 32 56 VTop 2
SYMATTR InstName R7
SYMATTR Value 268K
TEXT 192 920 Left 2 !.tran 10m startup
