Version 4
SHEET 1 880 680
WIRE 144 64 64 64
WIRE 160 64 144 64
WIRE 496 64 416 64
WIRE 608 64 576 64
WIRE 64 80 64 64
WIRE 144 144 144 64
WIRE 160 144 144 144
WIRE 448 144 416 144
WIRE 560 144 528 144
WIRE 608 144 608 64
WIRE 608 144 560 144
WIRE 688 144 608 144
WIRE 608 160 608 144
WIRE 688 160 688 144
WIRE 64 176 64 160
WIRE 160 224 144 224
WIRE 560 224 560 144
WIRE 560 224 416 224
WIRE 608 256 608 224
WIRE 688 256 688 240
WIRE 160 304 144 304
WIRE 448 304 416 304
WIRE 544 304 528 304
WIRE 240 384 240 368
WIRE 336 384 336 368
FLAG 544 304 0
FLAG 608 256 0
FLAG 240 384 0
FLAG 64 176 0
FLAG 688 144 OUT
FLAG 688 256 0
FLAG 64 64 IN
FLAG 336 384 0
FLAG 144 304 0
FLAG 144 224 0
SYMBOL ind 432 160 R270
WINDOW 0 32 56 VTop 2
WINDOW 3 5 56 VBottom 2
SYMATTR InstName L1
SYMATTR Value 2.2µ
SYMATTR SpiceLine Rser=80m
SYMBOL cap 592 160 R0
SYMATTR InstName C1
SYMATTR Value 10µ
SYMBOL res 432 320 R270
WINDOW 3 0 56 VBottom 2
WINDOW 0 32 56 VTop 2
SYMATTR Value 19.6K
SYMATTR InstName R2
SYMBOL res 592 48 R90
WINDOW 0 0 56 VBottom 2
WINDOW 3 32 56 VTop 2
SYMATTR InstName R1
SYMATTR Value 1Meg
SYMBOL voltage 64 64 R0
SYMATTR InstName V1
SYMATTR Value 5
SYMBOL res 672 144 R0
SYMATTR Value 36
SYMATTR InstName Rload
SYMBOL ADP5300-1 288 192 R0
SYMATTR InstName U1
TEXT 440 384 Left 2 !.tran 1m startup
