Version 4
SHEET 1 880 680
WIRE 112 64 16 64
WIRE 160 64 112 64
WIRE 496 64 416 64
WIRE 608 64 576 64
WIRE 16 80 16 64
WIRE 112 144 112 64
WIRE 160 144 112 144
WIRE 448 144 416 144
WIRE 560 144 528 144
WIRE 608 144 608 64
WIRE 608 144 560 144
WIRE 688 144 608 144
WIRE 608 160 608 144
WIRE 688 160 688 144
WIRE 16 176 16 160
WIRE 160 224 144 224
WIRE 560 224 560 144
WIRE 560 224 416 224
WIRE 608 256 608 224
WIRE 688 256 688 240
WIRE 112 304 112 144
WIRE 160 304 112 304
WIRE 432 304 416 304
WIRE 240 384 240 368
WIRE 336 384 336 368
WIRE 112 416 112 304
WIRE 432 416 432 304
WIRE 432 416 112 416
FLAG 608 256 0
FLAG 240 384 0
FLAG 16 176 0
FLAG 688 144 OUT
FLAG 688 256 0
FLAG 16 64 IN
FLAG 336 384 0
FLAG 144 224 0
SYMBOL ind 432 160 R270
WINDOW 0 32 56 VTop 2
WINDOW 3 5 56 VBottom 2
SYMATTR InstName L1
SYMATTR Value 2.2µ
SYMATTR SpiceLine Rser=80m
SYMBOL cap 592 160 R0
SYMATTR InstName C1
SYMATTR Value 10µ
SYMBOL res 592 48 R90
WINDOW 0 0 56 VBottom 2
WINDOW 3 32 56 VTop 2
SYMATTR InstName R1
SYMATTR Value 1Meg
SYMBOL voltage 16 64 R0
SYMATTR InstName V1
SYMATTR Value 5
SYMBOL res 672 144 R0
SYMATTR Value 80
SYMATTR InstName Rload
SYMBOL ADP5300-4 288 192 R0
SYMATTR InstName U1
TEXT 528 400 Left 2 !.tran 3.5m startup
