Version 4
SHEET 1 984 680
WIRE 32 -48 16 -48
WIRE 96 -48 32 -48
WIRE 112 -48 96 -48
WIRE 400 -48 368 -48
WIRE 432 -48 400 -48
WIRE 496 -48 432 -48
WIRE 512 -48 496 -48
WIRE 16 -32 16 -48
WIRE 432 -32 432 -48
WIRE 512 -32 512 -48
WIRE 400 16 400 -48
WIRE 400 16 368 16
WIRE 432 48 432 32
WIRE 16 64 16 48
WIRE 512 64 512 48
WIRE 96 80 96 -48
WIRE 112 80 96 80
WIRE 464 80 368 80
WIRE 384 144 368 144
WIRE 464 144 464 80
WIRE 464 144 448 144
WIRE 464 160 464 144
WIRE 176 224 176 208
WIRE 304 224 304 208
WIRE 464 240 464 224
WIRE 176 304 176 288
FLAG 16 64 0
FLAG 432 48 0
FLAG 304 224 0
FLAG 512 64 0
FLAG 32 -48 IN
FLAG 496 -48 OUT
FLAG 464 240 0
FLAG 176 304 0
SYMBOL cap 416 -32 R0
SYMATTR InstName C2
SYMATTR Value 4.7µ
SYMATTR SpiceLine Rser=5m
SYMBOL voltage 16 -48 R0
SYMATTR InstName V1
SYMATTR Value -2
SYMBOL res 496 -48 R0
SYMATTR InstName RLOAD
SYMATTR Value 1
SYMBOL cap 448 128 R90
WINDOW 0 0 32 VBottom 2
WINDOW 3 32 32 VTop 2
SYMATTR InstName C1
SYMATTR Value 10n
SYMBOL cap 448 160 R0
SYMATTR InstName C3
SYMATTR Value 1µ
SYMBOL cap 160 224 R0
SYMATTR InstName C4
SYMATTR Value 1µ
SYMBOL ADP7185-0.5 240 48 R0
SYMATTR InstName U2
TEXT 136 360 Left 2 !.tran 20m startup
