Version 4
SHEET 1 1016 680
WIRE 16 -48 0 -48
WIRE 112 -48 16 -48
WIRE 384 -48 368 -48
WIRE 416 -48 384 -48
WIRE 512 -48 416 -48
WIRE 528 -48 512 -48
WIRE 0 -32 0 -48
WIRE 416 -32 416 -48
WIRE 384 16 384 -48
WIRE 384 16 368 16
WIRE 416 48 416 32
WIRE 528 48 528 32
WIRE 0 64 0 48
WIRE 112 80 48 80
WIRE 416 80 368 80
WIRE 512 80 416 80
WIRE 576 80 512 80
WIRE 416 96 416 80
WIRE 512 96 512 80
WIRE 576 96 576 80
WIRE 48 112 48 80
WIRE 384 144 368 144
WIRE 384 192 384 144
WIRE 416 192 416 176
WIRE 416 192 384 192
WIRE 512 192 512 160
WIRE 512 192 416 192
WIRE 576 192 576 160
WIRE 48 208 48 192
WIRE 416 208 416 192
WIRE 176 224 176 208
WIRE 304 224 304 208
WIRE 176 304 176 288
WIRE 416 304 416 288
FLAG 0 64 0
FLAG 416 48 0
FLAG 48 208 0
FLAG 304 224 0
FLAG 528 48 0
FLAG 16 -48 IN
FLAG 512 -48 OUT
FLAG 576 192 0
FLAG 176 304 0
FLAG 416 304 0
SYMBOL cap 400 -32 R0
SYMATTR InstName C2
SYMATTR Value 4.7µ
SYMBOL voltage 0 -48 R0
SYMATTR InstName V1
SYMATTR Value -3.8
SYMBOL voltage 48 96 R0
WINDOW 123 0 0 Left 0
WINDOW 39 0 0 Left 0
SYMATTR InstName V2
SYMATTR Value 1.5
SYMBOL res 512 -64 R0
SYMATTR InstName RLOAD
SYMATTR Value 5
SYMBOL ADP7185 240 48 R0
SYMATTR InstName U1
SYMBOL cap 496 96 R0
SYMATTR InstName C1
SYMATTR Value 10n
SYMBOL cap 560 96 R0
SYMATTR InstName C3
SYMATTR Value 1µ
SYMBOL cap 160 224 R0
SYMATTR InstName C4
SYMATTR Value 1µ
SYMBOL res 400 80 R0
SYMATTR InstName R1
SYMATTR Value 100k
SYMBOL res 400 192 R0
SYMATTR InstName R2
SYMATTR Value 24.9k
TEXT 240 352 Center 2 !.tran 20m startup
