Version 4
SHEET 1 936 680
WIRE 32 128 -96 128
WIRE 80 128 32 128
WIRE 400 128 336 128
WIRE -96 192 -96 128
WIRE 32 192 32 128
WIRE 80 192 32 192
WIRE 400 192 400 128
WIRE 400 192 336 192
WIRE 512 192 400 192
WIRE 512 208 512 192
WIRE 32 224 32 192
WIRE 400 224 400 192
WIRE 160 272 160 240
WIRE 208 272 160 272
WIRE 256 272 256 240
WIRE 256 272 208 272
WIRE -96 304 -96 272
WIRE 32 304 32 288
WIRE 208 304 208 272
WIRE 400 304 400 288
WIRE 512 304 512 288
FLAG 400 304 0
FLAG 208 304 0
FLAG 400 128 OUT
FLAG -96 304 0
FLAG 32 304 0
FLAG -96 128 IN
FLAG 512 304 0
SYMBOL cap 384 224 R0
SYMATTR InstName C1
SYMATTR Value 1µ
SYMBOL voltage -96 176 R0
WINDOW 123 0 0 Left 0
WINDOW 39 0 0 Left 0
SYMATTR InstName V1
SYMATTR Value 5
SYMBOL cap 16 224 R0
SYMATTR InstName C2
SYMATTR Value 0.1µ
SYMBOL current 512 208 R0
WINDOW 3 44 53 Left 2
WINDOW 123 0 0 Left 0
WINDOW 39 0 0 Left 0
SYMATTR Value PULSE(1m 2m 2m 1n 1n 2m 4m)
SYMATTR InstName I1
SYMBOL ADR3625 208 144 R0
SYMATTR InstName U1
TEXT -128 352 Left 2 !.tran 6m
