Version 4
SHEET 1 1444 680
WIRE 160 32 32 32
WIRE 480 32 416 32
WIRE 544 32 480 32
WIRE 592 32 544 32
WIRE 32 48 32 32
WIRE 480 48 480 32
WIRE 592 48 592 32
WIRE 480 144 480 112
WIRE 32 160 32 128
WIRE 288 160 288 128
WIRE 592 160 592 128
WIRE 656 160 592 160
WIRE 768 160 736 160
WIRE 672 208 656 208
WIRE 656 240 656 208
WIRE 592 256 592 160
WIRE 624 256 592 256
WIRE 272 272 256 272
WIRE 384 272 368 272
WIRE 768 272 768 160
WIRE 768 272 688 272
WIRE 832 272 768 272
WIRE 880 272 832 272
WIRE 624 288 592 288
WIRE 256 304 256 272
WIRE 368 304 368 272
WIRE 592 336 592 288
WIRE 656 352 656 304
WIRE 672 352 656 352
WIRE 256 400 256 384
WIRE 368 400 368 384
WIRE 592 432 592 416
FLAG 32 160 0
FLAG 288 160 0
FLAG 32 32 IN
FLAG 544 32 OUT_+5V
FLAG 592 432 0
FLAG 832 272 OUT_-5V
FLAG 272 272 +V
FLAG 384 272 -V
FLAG 368 400 0
FLAG 256 400 0
FLAG 672 208 +V
FLAG 672 352 -V
FLAG 480 144 0
SYMBOL voltage 32 32 R0
WINDOW 123 0 0 Left 0
WINDOW 39 0 0 Left 0
WINDOW 3 26 86 Left 2
SYMATTR Value 10
SYMATTR InstName V1
SYMBOL cap 464 48 R0
WINDOW 39 24 84 Left 2
SYMATTR InstName C1
SYMATTR Value 1µ
SYMBOL ADR4550 288 32 R0
SYMATTR InstName U1
SYMBOL res 576 32 R0
SYMATTR InstName R1
SYMATTR Value 10k
SYMBOL res 752 144 R90
WINDOW 0 5 17 VBottom 2
WINDOW 3 34 17 VTop 2
SYMATTR InstName R2
SYMATTR Value 10k
SYMBOL OpAmps\\ADA4000-1 656 208 R0
WINDOW 0 32 42 Left 2
WINDOW 3 31 101 Left 2
SYMATTR InstName U2
SYMBOL res 576 320 R0
SYMATTR InstName R3
SYMATTR Value 10k
SYMBOL voltage 256 288 R0
WINDOW 123 0 0 Left 2
WINDOW 39 0 0 Left 2
SYMATTR InstName V2
SYMATTR Value 15
SYMBOL voltage 368 288 R0
WINDOW 123 24 146 Left 2
WINDOW 39 24 125 Left 2
SYMATTR InstName V3
SYMATTR Value -15
TEXT 288 464 Left 2 !.tran 0 1m 0.5m startup
