Version 4
SHEET 1 3080 964
WIRE -1824 -464 -2032 -464
WIRE -1776 -464 -1824 -464
WIRE -1424 -464 -1472 -464
WIRE -1232 -464 -1424 -464
WIRE -2032 -432 -2032 -464
WIRE -1232 -432 -1232 -464
WIRE -1776 -400 -1936 -400
WIRE -1312 -400 -1472 -400
WIRE -2960 -368 -2992 -368
WIRE -2448 -368 -2480 -368
WIRE -2992 -336 -2992 -368
WIRE -2480 -336 -2480 -368
WIRE -1776 -336 -1872 -336
WIRE -1376 -336 -1472 -336
WIRE -2032 -320 -2032 -352
WIRE -1232 -320 -1232 -352
WIRE -1776 -272 -1872 -272
WIRE -1376 -272 -1472 -272
WIRE -2992 -224 -2992 -256
WIRE -2480 -224 -2480 -256
WIRE -1776 -208 -1872 -208
WIRE -1376 -208 -1472 -208
WIRE -1776 -144 -1872 -144
WIRE -1376 -144 -1472 -144
WIRE -2960 -112 -2992 -112
WIRE -2448 -112 -2480 -112
WIRE -2992 -80 -2992 -112
WIRE -2480 -80 -2480 -112
WIRE -1440 -80 -1472 -80
WIRE -1232 -80 -1440 -80
WIRE -1232 -48 -1232 -80
WIRE -2992 32 -2992 0
WIRE -2480 32 -2480 0
WIRE -1232 64 -1232 32
FLAG -2032 -320 0
FLAG -1936 -400 0
FLAG -1872 -336 VIA
FLAG -1872 -272 VIB
FLAG -1872 -208 VIC
FLAG -1376 -144 VOD
FLAG -1376 -208 VOC
FLAG -1376 -272 VOB
FLAG -1376 -336 VOA
FLAG -1872 -144 VID
FLAG -1232 64 0
FLAG -2992 -224 0
FLAG -2480 -224 0
FLAG -2992 32 0
FLAG -2480 32 0
FLAG -2960 -368 VIA
FLAG -2448 -368 VIB
FLAG -2960 -112 VIC
FLAG -2448 -112 VID
FLAG -1312 -400 0
FLAG -1232 -320 0
FLAG -1440 -80 VE
FLAG -1424 -464 VDD2
FLAG -1824 -464 VDD1
SYMBOL voltage -2032 -448 R0
WINDOW 0 26 98 Left 2
WINDOW 3 33 16 Left 2
WINDOW 123 0 0 Left 0
WINDOW 39 0 0 Left 0
SYMATTR InstName V1
SYMATTR Value 5
SYMBOL voltage -1232 -448 R0
WINDOW 0 26 98 Left 2
WINDOW 3 33 16 Left 2
WINDOW 123 0 0 Left 0
WINDOW 39 0 0 Left 0
SYMATTR InstName V2
SYMATTR Value 5
SYMBOL voltage -1232 -64 R0
WINDOW 0 26 98 Left 2
WINDOW 3 33 16 Left 2
WINDOW 123 0 0 Left 0
WINDOW 39 0 0 Left 0
SYMATTR InstName V4
SYMATTR Value 5
SYMBOL voltage -2992 -352 R0
WINDOW 0 26 98 Left 2
WINDOW 3 30 13 Left 2
WINDOW 123 0 0 Left 0
WINDOW 39 0 0 Left 0
SYMATTR InstName V5
SYMATTR Value PULSE(0 5 0 1n 1n 5u 10u )
SYMBOL voltage -2480 -352 R0
WINDOW 0 26 98 Left 2
WINDOW 3 33 16 Left 2
WINDOW 123 0 0 Left 0
WINDOW 39 0 0 Left 0
SYMATTR InstName V6
SYMATTR Value PULSE(0 5 0 1n 1n 5u 10u )
SYMBOL voltage -2992 -96 R0
WINDOW 0 26 98 Left 2
WINDOW 3 30 12 Left 2
WINDOW 123 0 0 Left 0
WINDOW 39 0 0 Left 0
SYMATTR InstName V7
SYMATTR Value PULSE(0 5 0 1n 1n 5u 10u )
SYMBOL voltage -2480 -96 R0
WINDOW 0 26 98 Left 2
WINDOW 3 33 16 Left 2
WINDOW 123 0 0 Left 0
WINDOW 39 0 0 Left 0
SYMATTR InstName V8
SYMATTR Value PULSE(0 5 0 1n 1n 5u 10u )
SYMBOL ADuM340E0 -1616 -352 R0
SYMATTR InstName U1
TEXT -1680 -32 Left 2 !.tran 100u
