Version 4
SHEET 1 1216 680
WIRE 656 16 368 16
WIRE 688 16 656 16
WIRE -48 32 -608 32
WIRE 64 32 -48 32
WIRE 688 32 688 16
WIRE -608 80 -608 32
WIRE 560 80 368 80
WIRE -48 112 -464 112
WIRE 64 112 -48 112
WIRE 688 112 688 96
WIRE 432 144 368 144
WIRE -176 192 -336 192
WIRE -64 192 -176 192
WIRE 64 192 -64 192
WIRE -608 224 -608 160
WIRE -464 224 -464 192
WIRE -336 224 -336 192
WIRE 560 224 368 224
WIRE -176 272 -176 192
WIRE -128 272 -176 272
WIRE 0 272 -64 272
WIRE 64 272 0 272
WIRE 432 288 368 288
WIRE -336 320 -336 304
WIRE 0 352 0 272
WIRE 64 352 0 352
WIRE 656 352 368 352
WIRE 688 352 656 352
WIRE 688 368 688 352
WIRE 0 384 0 352
WIRE 688 448 688 432
FLAG -336 320 0
FLAG -608 224 0
FLAG -464 224 0
FLAG 688 112 0
FLAG 688 448 0
FLAG 656 352 VOB
FLAG 656 16 VOA
FLAG 0 384 0
FLAG 432 288 0
FLAG 432 144 0
FLAG -48 32 VIA
FLAG -48 112 VIB
FLAG 560 304 0
FLAG 560 160 0
FLAG -64 192 VDD1
SYMBOL voltage -608 64 R0
WINDOW 0 30 80 Left 2
WINDOW 3 18 -5 Left 2
WINDOW 123 0 0 Left 0
WINDOW 39 0 0 Left 0
SYMATTR InstName V1
SYMATTR Value PULSE(0 5 0 1n 1n 5u 10u)
SYMBOL voltage -464 96 R0
WINDOW 0 20 108 Left 2
WINDOW 3 39 40 Left 2
WINDOW 123 0 0 Left 0
WINDOW 39 0 0 Left 0
SYMATTR InstName V2
SYMATTR Value PULSE(5 0 0 1n 1n 5u 10u)
SYMBOL voltage -336 208 R0
WINDOW 123 0 0 Left 0
WINDOW 39 0 0 Left 0
SYMATTR InstName V3
SYMATTR Value 5
SYMBOL voltage 560 64 R0
WINDOW 123 0 0 Left 0
WINDOW 39 0 0 Left 0
SYMATTR InstName V5
SYMATTR Value 12
SYMBOL cap 672 32 R0
SYMATTR InstName C3
SYMATTR Value 2n
SYMBOL cap 672 368 R0
SYMATTR InstName C5
SYMATTR Value 2n
SYMBOL cap -64 256 R90
WINDOW 0 0 32 VBottom 2
WINDOW 3 32 32 VTop 2
SYMATTR InstName C1
SYMATTR Value 10n
SYMBOL voltage 560 208 R0
WINDOW 123 0 0 Left 0
WINDOW 39 0 0 Left 0
SYMATTR InstName V6
SYMATTR Value 12
SYMBOL ADuM4223A 224 112 R0
SYMATTR InstName U1
TEXT 64 440 Left 2 !.tran 50u
