Version 4
SHEET 1 3080 680
WIRE -1376 -496 -1440 -496
WIRE -848 -496 -1376 -496
WIRE -1792 -480 -2032 -480
WIRE -1728 -480 -1792 -480
WIRE -848 -464 -848 -496
WIRE -2032 -448 -2032 -480
WIRE -1376 -432 -1440 -432
WIRE -1328 -432 -1376 -432
WIRE -1792 -384 -1856 -384
WIRE -1728 -384 -1792 -384
WIRE -1376 -368 -1440 -368
WIRE -960 -368 -1376 -368
WIRE -960 -336 -960 -368
WIRE -2032 -320 -2032 -368
WIRE -848 -320 -848 -384
WIRE -1792 -304 -1856 -304
WIRE -1728 -304 -1792 -304
WIRE -1376 -304 -1440 -304
WIRE -1184 -304 -1376 -304
WIRE -1376 -240 -1440 -240
WIRE -1184 -240 -1184 -304
WIRE -1184 -240 -1376 -240
WIRE -1728 -208 -1808 -208
WIRE -960 -208 -960 -256
WIRE -1392 -176 -1440 -176
FLAG -1808 -208 0
FLAG -848 -320 0
FLAG -1376 -496 Vdd2
FLAG -1392 -176 0
FLAG -2032 -320 0
FLAG -960 -208 0
FLAG -1792 -304 Vout1
FLAG -1792 -480 Vdd1
FLAG -1376 -304 Vin-
FLAG -1376 -368 Vin+
FLAG -1376 -432 Vref2
FLAG -1376 -240 Vout2
FLAG -1792 -384 Vref1
SYMBOL voltage -848 -480 R0
WINDOW 0 26 98 Left 2
WINDOW 3 33 16 Left 2
WINDOW 123 0 0 Left 0
WINDOW 39 0 0 Left 0
SYMATTR InstName V1
SYMATTR Value 5
SYMBOL voltage -2032 -464 R0
WINDOW 123 0 0 Left 0
WINDOW 39 0 0 Left 0
WINDOW 0 43 29 Left 2
WINDOW 3 44 86 Left 2
SYMATTR InstName V4
SYMATTR Value 5
SYMBOL voltage -960 -352 R0
WINDOW 0 26 98 Left 2
WINDOW 3 15 0 Left 2
WINDOW 123 26 126 Left 2
WINDOW 39 0 0 Left 0
SYMATTR InstName V2
SYMATTR Value 5
SYMBOL ADuM4195 -1568 -352 R0
SYMATTR InstName U1
TEXT -1728 -104 Left 2 !.tran 1m
