Version 4
SHEET 1 1108 680
WIRE 416 16 368 16
WIRE 672 16 416 16
WIRE 32 32 -560 32
WIRE 64 32 32 32
WIRE 672 48 672 16
WIRE -560 80 -560 32
WIRE 416 80 368 80
WIRE 560 80 416 80
WIRE 32 112 -400 112
WIRE 64 112 32 112
WIRE 560 112 560 80
WIRE 672 128 672 112
WIRE 448 144 368 144
WIRE -176 192 -288 192
WIRE 64 192 -176 192
WIRE -560 224 -560 160
WIRE -400 224 -400 192
WIRE -288 224 -288 192
WIRE 416 224 368 224
WIRE 560 224 416 224
WIRE 560 240 560 224
WIRE -176 272 -176 192
WIRE -160 272 -176 272
WIRE -48 272 -96 272
WIRE 64 272 -48 272
WIRE 448 288 368 288
WIRE -288 336 -288 304
WIRE -48 352 -48 272
WIRE 64 352 -48 352
WIRE 416 352 368 352
WIRE 672 352 416 352
WIRE -48 384 -48 352
WIRE 672 384 672 352
WIRE 672 464 672 448
FLAG -288 336 0
FLAG -48 384 0
FLAG -560 224 0
FLAG -400 224 0
FLAG 672 128 0
FLAG 672 464 0
FLAG 560 320 0
FLAG 416 352 VOB
FLAG 416 16 VOA
FLAG 448 288 0
FLAG 448 144 0
FLAG 560 192 0
FLAG 32 32 VIA
FLAG 32 112 VIB
FLAG 416 80 VDDA
FLAG 416 224 VDDB
SYMBOL voltage -560 64 R0
WINDOW 0 30 80 Left 2
WINDOW 3 22 -14 Left 2
WINDOW 123 0 0 Left 0
WINDOW 39 0 0 Left 0
SYMATTR InstName V1
SYMATTR Value PULSE(0 5 0 2n 2n 5u 10u)
SYMBOL voltage -400 96 R0
WINDOW 0 32 102 Left 2
WINDOW 3 33 33 Left 2
WINDOW 123 0 0 Left 0
WINDOW 39 0 0 Left 0
SYMATTR InstName V2
SYMATTR Value PULSE(5 0 0 2n 2n 5u 10u)
SYMBOL voltage -288 208 R0
WINDOW 123 0 0 Left 0
WINDOW 39 0 0 Left 0
SYMATTR InstName V3
SYMATTR Value 5
SYMBOL voltage 560 224 R0
WINDOW 123 0 0 Left 0
WINDOW 39 0 0 Left 0
SYMATTR InstName V5
SYMATTR Value 12
SYMBOL cap 656 48 R0
SYMATTR InstName C3
SYMATTR Value 2n
SYMBOL cap 656 384 R0
SYMATTR InstName C5
SYMATTR Value 2n
SYMBOL cap -96 256 R90
WINDOW 0 0 32 VBottom 2
WINDOW 3 32 32 VTop 2
SYMATTR InstName C1
SYMATTR Value 10n
SYMBOL voltage 560 96 R0
WINDOW 123 0 0 Left 0
WINDOW 39 0 0 Left 0
SYMATTR InstName V6
SYMATTR Value 12
SYMBOL ADuM3223C 224 112 R0
SYMATTR InstName U1
TEXT 64 440 Left 2 !.tran 50u
