Version 4
SHEET 1 3080 680
WIRE -1776 -448 -2096 -448
WIRE -1728 -448 -1776 -448
WIRE -1376 -448 -1424 -448
WIRE -1232 -448 -1376 -448
WIRE -1232 -432 -1232 -448
WIRE -2096 -416 -2096 -448
WIRE -1776 -384 -2000 -384
WIRE -1728 -384 -1776 -384
WIRE -1376 -384 -1424 -384
WIRE -1296 -384 -1376 -384
WIRE -2000 -352 -2000 -384
WIRE -1776 -304 -1872 -304
WIRE -1728 -304 -1776 -304
WIRE -1872 -272 -1872 -304
WIRE -1728 -240 -1760 -240
WIRE -1392 -240 -1424 -240
WIRE -2096 -160 -2096 -336
WIRE -2000 -160 -2000 -272
WIRE -1872 -160 -1872 -192
FLAG -1392 -240 0
FLAG -2096 -160 0
FLAG -1872 -160 0
FLAG -1776 -448 Vdd2
FLAG -1760 -240 0
FLAG -1232 -352 0
FLAG -2000 -160 0
FLAG -1776 -384 Vin
FLAG -1376 -384 Vout
FLAG -1376 -448 Vdd1
FLAG -1776 -304 Shtdn
SYMBOL voltage -2096 -432 R0
WINDOW 0 26 98 Left 2
WINDOW 3 33 16 Left 2
WINDOW 123 0 0 Left 0
WINDOW 39 0 0 Left 0
SYMATTR InstName V1
SYMATTR Value 5
SYMBOL voltage -1872 -288 R0
SYMATTR InstName V3
SYMATTR Value 0
SYMBOL voltage -1232 -448 R0
WINDOW 123 0 0 Left 0
WINDOW 39 0 0 Left 0
WINDOW 0 43 29 Left 2
WINDOW 3 46 61 Left 2
SYMATTR InstName V4
SYMATTR Value 5
SYMBOL voltage -2000 -368 R0
WINDOW 0 26 98 Left 2
WINDOW 3 33 16 Left 2
WINDOW 123 26 126 Left 2
WINDOW 39 0 0 Left 0
SYMATTR InstName V2
SYMATTR Value 5
SYMATTR Value2 AC 1
SYMBOL ADuM4195-1 -1568 -352 R0
SYMATTR InstName U1
TEXT -1728 -128 Left 2 !.tran 1m
