Version 4
SHEET 1 1064 680
WIRE 16 -80 -112 -80
WIRE 160 -80 16 -80
WIRE 464 -80 320 -80
WIRE 560 -80 464 -80
WIRE 704 -80 560 -80
WIRE -112 -64 -112 -80
WIRE 704 -64 704 -80
WIRE 16 -48 16 -80
WIRE 464 -48 464 -80
WIRE 560 -48 560 -80
WIRE -112 32 -112 16
WIRE 16 32 16 16
WIRE 464 32 464 16
WIRE 560 32 560 16
WIRE 704 32 704 16
WIRE 160 64 160 -80
WIRE 320 64 320 -80
WIRE 48 128 -352 128
WIRE 112 128 48 128
WIRE 464 128 368 128
WIRE 592 128 544 128
WIRE 688 128 592 128
WIRE 688 144 688 128
WIRE -352 160 -352 128
WIRE 112 192 48 192
WIRE 592 192 592 128
WIRE 592 192 368 192
WIRE 688 224 688 208
WIRE -352 288 -352 240
WIRE 160 304 160 256
WIRE 320 304 320 256
FLAG 160 304 0
FLAG 320 304 0
FLAG 688 224 0
FLAG 688 128 OUT
FLAG 704 32 0
FLAG -112 32 0
FLAG -352 288 0
FLAG 48 192 0
FLAG 16 32 0
FLAG 464 32 0
FLAG 560 32 0
FLAG 48 128 VI+
SYMBOL voltage -112 -80 R0
SYMATTR InstName V1
SYMATTR Value 5
SYMBOL voltage 704 -80 R0
WINDOW 123 24 132 Left 2
WINDOW 39 24 114 Left 2
SYMATTR InstName V2
SYMATTR Value 15
SYMBOL res 560 112 R90
WINDOW 0 0 56 VBottom 2
WINDOW 3 32 56 VTop 2
SYMATTR InstName R1
SYMATTR Value 10
SYMBOL cap 672 144 R0
SYMATTR InstName C1
SYMATTR Value 2n
SYMBOL voltage -352 144 R0
WINDOW 123 24 132 Left 2
WINDOW 39 24 114 Left 2
SYMATTR InstName V3
SYMATTR Value PULSE(0 5 0 2n 2n 9.998u 20u)
SYMBOL ADuM4121C 240 160 R0
SYMATTR InstName U1
SYMBOL cap 0 -48 R0
SYMATTR InstName C2
SYMATTR Value 0.1µ
SYMBOL cap 448 -48 R0
SYMATTR InstName C3
SYMATTR Value 10µ
SYMBOL cap 544 -48 R0
SYMATTR InstName C4
SYMATTR Value 0.1µ
TEXT 384 344 Left 2 !.tran 100u
