Version 4
SHEET 1 1228 692
WIRE 416 16 368 16
WIRE 688 16 416 16
WIRE 64 32 -64 32
WIRE -64 48 -64 32
WIRE 416 80 368 80
WIRE 592 80 416 80
WIRE 592 96 592 80
WIRE 16 112 -448 112
WIRE 64 112 16 112
WIRE 688 128 688 96
WIRE 432 144 368 144
WIRE -448 160 -448 112
WIRE 592 176 592 160
WIRE 16 192 -288 192
WIRE 64 192 16 192
WIRE 416 224 368 224
WIRE 688 224 416 224
WIRE -448 256 -448 240
WIRE 64 272 -80 272
WIRE 416 288 368 288
WIRE 592 288 416 288
WIRE -288 304 -288 272
WIRE -80 304 -80 272
WIRE 592 304 592 288
WIRE 16 352 -80 352
WIRE 64 352 16 352
WIRE 432 352 368 352
WIRE 432 368 432 352
WIRE -80 384 -80 352
WIRE 592 384 592 368
WIRE -80 480 -80 464
FLAG -80 480 0
FLAG -448 256 0
FLAG -288 304 0
FLAG 592 176 0
FLAG 592 384 0
FLAG 416 288 VOB
FLAG 416 80 VOA
FLAG 432 368 0
FLAG 432 144 0
FLAG 16 192 inputB
FLAG 688 304 0
FLAG 688 128 0
FLAG 16 352 VDD1
FLAG -64 48 0
FLAG 416 224 VDDB
FLAG 16 112 inputA
FLAG 416 16 VDDA
FLAG -80 304 0
SYMBOL voltage -448 144 R0
WINDOW 0 30 80 Left 2
WINDOW 3 18 -5 Left 2
WINDOW 123 0 0 Left 0
WINDOW 39 0 0 Left 0
SYMATTR InstName V1
SYMATTR Value PULSE(0 5 0 2n 2n 5u 10u)
SYMBOL voltage -288 176 R0
WINDOW 0 20 108 Left 2
WINDOW 3 39 40 Left 2
WINDOW 123 0 0 Left 0
WINDOW 39 0 0 Left 0
SYMATTR InstName V2
SYMATTR Value PULSE(5 0 0 2n 2n 5u 10u)
SYMBOL voltage -80 368 R0
WINDOW 123 0 0 Left 0
WINDOW 39 0 0 Left 0
WINDOW 3 32 90 Left 2
SYMATTR Value 5
SYMATTR InstName V3
SYMBOL voltage 688 0 R0
WINDOW 123 0 0 Left 0
WINDOW 39 24 124 Left 2
SYMATTR InstName V5
SYMATTR Value 12
SYMBOL cap 576 304 R0
SYMATTR InstName C2
SYMATTR Value 2n
SYMBOL voltage 688 208 R0
WINDOW 123 0 0 Left 0
WINDOW 39 0 0 Left 0
SYMATTR InstName V6
SYMATTR Value 12
SYMBOL ADuM7223B 224 112 R0
SYMATTR InstName U1
SYMBOL cap 576 96 R0
SYMATTR InstName C1
SYMATTR Value 2n
TEXT 64 440 Left 2 !.tran 50u
