Version 4
SHEET 1 1216 680
WIRE 768 16 368 16
WIRE 848 16 768 16
WIRE -48 32 -720 32
WIRE 64 32 -48 32
WIRE 768 32 768 16
WIRE -720 80 -720 32
WIRE 640 80 368 80
WIRE -48 112 -560 112
WIRE 64 112 -48 112
WIRE 768 112 768 96
WIRE 432 144 368 144
WIRE -176 192 -480 192
WIRE -64 192 -176 192
WIRE 64 192 -64 192
WIRE -480 224 -480 192
WIRE 640 224 368 224
WIRE -176 272 -176 192
WIRE -128 272 -176 272
WIRE 0 272 -64 272
WIRE 64 272 0 272
WIRE 432 288 368 288
WIRE 0 304 0 272
WIRE -480 320 -480 304
WIRE -720 352 -720 160
WIRE -560 352 -560 192
WIRE 0 352 -176 352
WIRE 64 352 0 352
WIRE 768 352 368 352
WIRE 848 352 768 352
WIRE -176 368 -176 352
WIRE 768 368 768 352
WIRE 768 448 768 432
WIRE -176 464 -176 448
FLAG -480 320 0
FLAG -176 464 0
FLAG -720 352 0
FLAG -560 352 0
FLAG 768 112 0
FLAG 768 448 0
FLAG 848 352 VOB
FLAG 848 16 VOA
FLAG 0 304 0
FLAG 432 288 0
FLAG 432 144 0
FLAG 0 352 disable
FLAG -48 32 inputA
FLAG -48 112 inputB
FLAG 640 304 0
FLAG 640 160 0
FLAG -64 192 VDD1
SYMBOL voltage -720 64 R0
WINDOW 0 30 80 Left 2
WINDOW 3 18 -5 Left 2
WINDOW 123 0 0 Left 0
WINDOW 39 0 0 Left 0
SYMATTR InstName V1
SYMATTR Value PULSE(0 5 0 1n 1n 5u 10u)
SYMBOL voltage -560 96 R0
WINDOW 0 20 108 Left 2
WINDOW 3 39 40 Left 2
WINDOW 123 0 0 Left 0
WINDOW 39 0 0 Left 0
SYMATTR InstName V2
SYMATTR Value PULSE(5 0 0 1n 1n 5u 10u)
SYMBOL voltage -480 208 R0
WINDOW 123 0 0 Left 0
WINDOW 39 0 0 Left 0
SYMATTR InstName V3
SYMATTR Value 5
SYMBOL voltage -176 352 R0
WINDOW 123 0 0 Left 0
WINDOW 39 0 0 Left 0
SYMATTR InstName V4
SYMATTR Value 0
SYMBOL voltage 640 64 R0
WINDOW 123 0 0 Left 0
WINDOW 39 0 0 Left 0
SYMATTR InstName V5
SYMATTR Value 12
SYMBOL cap 752 32 R0
SYMATTR InstName C3
SYMATTR Value 2n
SYMBOL cap 752 368 R0
SYMATTR InstName C5
SYMATTR Value 2n
SYMBOL cap -64 256 R90
WINDOW 0 0 32 VBottom 2
WINDOW 3 32 32 VTop 2
SYMATTR InstName C1
SYMATTR Value 0.01µ
SYMBOL voltage 640 208 R0
WINDOW 123 0 0 Left 0
WINDOW 39 0 0 Left 0
SYMATTR InstName V6
SYMATTR Value 12
SYMBOL ADuM3223A 224 112 R0
SYMATTR InstName U1
TEXT 168 440 Left 2 !.tran 50u
