Version 4
SHEET 1 1064 680
WIRE -64 -48 -176 -48
WIRE 112 -48 -64 -48
WIRE 208 -48 112 -48
WIRE 512 -48 400 -48
WIRE 672 -48 512 -48
WIRE -64 -32 -64 -48
WIRE -176 -16 -176 -48
WIRE 208 -16 208 -48
WIRE 400 -16 400 -48
WIRE 672 16 672 -48
WIRE -64 64 -64 48
WIRE 96 64 -64 64
WIRE 128 64 96 64
WIRE -176 80 -176 64
WIRE -64 80 -64 64
WIRE 528 80 480 80
WIRE 560 80 528 80
WIRE 96 96 64 96
WIRE 128 96 96 96
WIRE 560 96 560 80
WIRE 672 112 672 96
WIRE -64 192 -64 160
WIRE 560 208 560 176
WIRE 64 224 64 96
WIRE 208 224 208 208
WIRE 400 224 400 208
WIRE 64 368 64 304
FLAG -176 80 0
FLAG 208 224 0
FLAG 400 224 0
FLAG 672 112 0
FLAG 560 208 0
FLAG 64 368 0
FLAG -64 192 0
FLAG 96 64 -IN
FLAG 96 96 +IN
FLAG 528 80 OUT
FLAG 512 -48 V+DIG
FLAG 112 -48 V+ANG
SYMBOL voltage -176 -32 R0
WINDOW 3 26 96 Left 2
WINDOW 123 0 0 Left 0
WINDOW 39 0 0 Left 0
SYMATTR Value 5
SYMATTR InstName V1
SYMBOL voltage 672 0 R0
WINDOW 3 26 96 Left 2
WINDOW 123 0 0 Left 0
WINDOW 39 0 0 Left 0
SYMATTR Value 5
SYMATTR InstName V3
SYMBOL res 544 80 R0
SYMATTR InstName R1
SYMATTR Value 10k
SYMBOL voltage 64 208 R0
WINDOW 123 0 0 Left 2
WINDOW 39 0 0 Left 2
SYMATTR InstName V4
SYMATTR Value PULSE(0 3 200n 10n 10n 1u 2u)
SYMBOL res -80 -48 R0
SYMATTR InstName R2
SYMATTR Value 1Meg
SYMBOL res -80 64 R0
SYMATTR InstName R3
SYMATTR Value 1Meg
SYMBOL CMP401 288 128 R0
SYMATTR InstName U1
TEXT 520 344 Left 2 !.tran 200u
