Version 4
SHEET 1 1084 836
WIRE 320 -208 -80 -208
WIRE 400 -208 320 -208
WIRE 496 -208 400 -208
WIRE -80 -192 -80 -208
WIRE 400 -192 400 -208
WIRE 32 -144 -16 -144
WIRE 144 -144 112 -144
WIRE 208 -144 144 -144
WIRE 320 -144 320 -208
WIRE 320 -144 288 -144
WIRE 144 -96 144 -144
WIRE 400 -96 400 -112
WIRE 288 -64 288 -80
WIRE -80 -48 -80 -96
WIRE 80 -48 -80 -48
WIRE 496 -48 496 -208
WIRE 144 32 144 0
WIRE 224 32 144 32
WIRE 288 32 288 0
WIRE 288 32 224 32
WIRE 352 32 288 32
WIRE 448 32 432 32
WIRE 144 64 144 32
WIRE 368 112 272 112
WIRE 496 112 496 48
WIRE 496 112 368 112
WIRE 496 144 496 112
WIRE 368 192 272 192
WIRE -192 272 -272 272
WIRE 16 272 -112 272
WIRE 368 272 368 256
WIRE 368 272 272 272
WIRE 496 272 496 224
WIRE 496 272 368 272
WIRE 608 272 496 272
WIRE 368 288 368 272
WIRE 608 288 608 272
WIRE -272 304 -272 272
WIRE 496 304 496 272
WIRE 368 352 272 352
WIRE 608 384 608 368
WIRE -272 416 -272 384
WIRE -80 432 -80 -48
WIRE 368 432 272 432
WIRE 496 432 496 384
WIRE 496 432 368 432
WIRE 496 512 496 432
WIRE 144 528 144 480
WIRE 224 528 144 528
WIRE 304 528 224 528
WIRE 352 528 304 528
WIRE 448 528 432 528
WIRE 144 544 144 528
WIRE 304 544 304 528
WIRE -80 592 -80 512
WIRE 80 592 -80 592
WIRE -80 608 -80 592
WIRE 304 624 304 608
WIRE 400 624 400 608
WIRE 32 656 -16 656
WIRE 144 656 144 640
WIRE 144 656 112 656
WIRE 192 656 144 656
WIRE 288 656 272 656
WIRE -80 720 -80 704
WIRE 288 720 288 656
WIRE 288 720 -80 720
WIRE 400 720 400 704
WIRE 400 720 288 720
WIRE 496 720 496 608
WIRE 496 720 400 720
FLAG -272 416 0
FLAG 400 -96 0
FLAG 288 -80 0
FLAG 304 624 0
FLAG 400 608 0
FLAG 608 384 0
FLAG 608 272 vOUT
FLAG -272 272 vIN
FLAG 224 32 Vtop
FLAG 224 528 Vbot
SYMBOL npn 80 544 R0
WINDOW 0 48 30 Left 2
WINDOW 3 47 62 Left 2
SYMATTR InstName Q1
SYMATTR Value 2N2222
SYMBOL npn -16 608 M0
WINDOW 0 48 29 Left 2
WINDOW 3 49 60 Left 2
SYMATTR InstName Q2
SYMATTR Value 2N2222
SYMBOL pnp 80 0 M180
WINDOW 0 50 65 Left 2
WINDOW 3 48 29 Left 2
SYMATTR InstName Q3
SYMATTR Value 2N2907
SYMBOL pnp -16 -96 R180
WINDOW 0 10 86 Right 2
WINDOW 3 42 -8 Right 2
SYMATTR InstName Q4
SYMATTR Value 2N2907
SYMBOL res 128 -160 R90
WINDOW 0 0 56 VBottom 2
WINDOW 3 32 56 VTop 2
SYMATTR InstName R1
SYMATTR Value 100
SYMBOL res 128 640 R90
WINDOW 0 0 56 VBottom 2
WINDOW 3 32 56 VTop 2
SYMATTR InstName R2
SYMATTR Value 100
SYMBOL res -96 416 R0
SYMATTR InstName R3
SYMATTR Value 5.6K
SYMBOL res -96 256 R90
WINDOW 0 0 56 VBottom 2
WINDOW 3 32 56 VTop 2
SYMATTR InstName R4
SYMATTR Value 4.3k
SYMBOL voltage -272 288 R0
WINDOW 123 0 0 Left 2
WINDOW 39 0 0 Left 2
SYMATTR InstName V1
SYMATTR Value SINE(0 1 1K)
SYMBOL res 304 -160 R90
WINDOW 0 0 56 VBottom 2
WINDOW 3 32 56 VTop 2
SYMATTR InstName R5
SYMATTR Value 47
SYMBOL res 288 640 R90
WINDOW 0 3 57 VBottom 2
WINDOW 3 32 56 VTop 2
SYMATTR InstName R6
SYMATTR Value 47
SYMBOL nmos 448 -48 R0
SYMATTR InstName Q5
SYMATTR Value Si4982DY
SYMBOL res 448 16 R90
WINDOW 0 0 56 VBottom 2
WINDOW 3 32 56 VTop 2
SYMATTR InstName R7
SYMATTR Value 100
SYMBOL voltage 400 -208 R0
SYMATTR InstName V2
SYMATTR Value 15
SYMBOL cap 272 -64 R0
WINDOW 3 24 53 Left 2
SYMATTR Value 300p
SYMATTR InstName C1
SYMBOL res 480 128 R0
SYMATTR InstName R8
SYMATTR Value 0.33
SYMBOL res 480 288 R0
SYMATTR InstName R9
SYMATTR Value 0.33
SYMBOL pmos 448 608 M180
WINDOW 0 64 63 Left 2
WINDOW 3 71 29 Left 2
SYMATTR InstName Q6
SYMATTR Value Si7113DN
SYMBOL res 448 512 R90
WINDOW 0 0 56 VBottom 2
WINDOW 3 32 56 VTop 2
SYMATTR InstName R10
SYMATTR Value 100
SYMBOL cap 288 608 M180
WINDOW 0 23 50 Left 2
WINDOW 3 25 12 Left 2
SYMATTR InstName C2
SYMATTR Value 300p
SYMBOL cap 352 192 R0
WINDOW 0 25 12 Left 2
WINDOW 3 35 48 Left 2
SYMATTR InstName C3
SYMATTR Value 1µ
SYMBOL cap 352 288 R0
WINDOW 0 29 16 Left 2
WINDOW 3 33 50 Left 2
SYMATTR InstName C4
SYMATTR Value 1µ
SYMBOL voltage 400 720 M180
WINDOW 0 28 93 Left 2
WINDOW 3 24 16 Left 2
WINDOW 123 0 0 Left 0
WINDOW 39 0 0 Left 0
SYMATTR InstName V3
SYMATTR Value -15
SYMBOL res 352 336 R0
SYMATTR InstName R11
SYMATTR Value 1K
SYMBOL res 352 96 R0
SYMATTR InstName R12
SYMATTR Value 1K
SYMBOL res 592 272 R0
SYMATTR InstName Rload
SYMATTR Value 4
SYMBOL SpecialFunctions\\LT1166 144 272 R0
SYMATTR InstName U1
TEXT 560 656 Left 2 !.tran 10m startup
