Version 4
SHEET 1 1388 720
WIRE 32 16 -112 16
WIRE 80 16 32 16
WIRE 176 16 160 16
WIRE 384 16 176 16
WIRE -112 32 -112 16
WIRE 32 32 32 16
WIRE 224 80 224 64
WIRE 176 96 176 16
WIRE 192 96 176 96
WIRE 384 96 384 16
WIRE 608 96 496 96
WIRE 336 112 256 112
WIRE -112 128 -112 112
WIRE 32 128 32 112
WIRE 192 128 32 128
WIRE 32 144 32 128
WIRE 224 160 224 144
WIRE 544 160 544 144
WIRE 496 176 496 96
WIRE 512 176 496 176
WIRE 608 192 608 96
WIRE 608 192 576 192
WIRE 672 192 608 192
WIRE 720 192 672 192
WIRE 384 208 384 192
WIRE 512 208 384 208
WIRE 672 208 672 192
WIRE 384 224 384 208
WIRE 32 240 32 224
WIRE 544 240 544 224
WIRE 672 288 672 272
WIRE 384 320 384 304
FLAG -112 128 0
FLAG 224 64 +V
FLAG 720 192 OUT
FLAG 32 240 0
FLAG 224 160 0
FLAG 32 16 +V
FLAG 384 320 0
FLAG 544 144 +V
FLAG 544 240 0
FLAG 672 288 0
SYMBOL voltage -112 16 R0
SYMATTR InstName V1
SYMATTR Value 5
SYMBOL res 176 0 R90
WINDOW 0 0 56 VBottom 2
WINDOW 3 32 56 VTop 2
SYMATTR InstName R1
SYMATTR Value 200
SYMBOL opamps\\LT1369 224 48 R0
SYMATTR InstName U1
SYMBOL pmos 336 192 M180
WINDOW 0 61 66 Left 2
WINDOW 3 59 31 Left 2
SYMATTR InstName Q1
SYMATTR Value BSS84
SYMBOL current 32 144 R0
WINDOW 123 0 0 Left 2
WINDOW 39 0 0 Left 2
SYMATTR InstName I1
SYMATTR Value SINE(.2 .1 1K)
SYMBOL res 16 16 R0
SYMATTR InstName R2
SYMATTR Value .1
SYMBOL res 368 208 R0
SYMATTR InstName R3
SYMATTR Value 20K
SYMBOL opamps\\LT1369 544 128 R0
SYMATTR InstName U2
SYMBOL cap 656 208 R0
SYMATTR InstName C1
SYMATTR Value .1µ
TEXT 464 312 Left 2 !.tran 3m
TEXT 408 -16 Bottom 2 ;Positive Supply Rail Current Sense
