Version 4
SHEET 1 1652 960
WIRE 704 448 432 448
WIRE 768 448 704 448
WIRE 896 448 848 448
WIRE 944 448 896 448
WIRE 1072 448 1008 448
WIRE 1184 448 1072 448
WIRE 1280 448 1184 448
WIRE 432 464 432 448
WIRE 1280 464 1280 448
WIRE 1184 480 1184 448
WIRE 704 512 704 448
WIRE 1072 512 1072 448
WIRE 432 560 432 544
WIRE 1184 560 1184 544
WIRE 1280 560 1280 544
WIRE 560 576 544 576
WIRE 896 576 896 448
WIRE 896 576 848 576
WIRE 464 656 416 656
WIRE 560 656 544 656
WIRE 1072 656 1072 592
WIRE 1072 656 848 656
WIRE 416 672 416 656
WIRE 1072 672 1072 656
WIRE 560 736 544 736
WIRE 864 736 848 736
WIRE 416 752 416 736
WIRE 1072 768 1072 752
WIRE 704 816 704 800
FLAG 1184 560 0
FLAG 1072 768 0
FLAG 704 816 0
FLAG 432 560 0
FLAG 416 752 0
FLAG 1280 560 0
FLAG 1280 448 OUT
FLAG 432 448 IN
SYMBOL POLCAP 1168 480 R0
SYMATTR InstName C2
SYMATTR Value 33µ
SYMATTR SpiceLine Rser=0.02
SYMBOL SCHOTTKY 944 464 R270
WINDOW 0 32 32 VTop 2
WINDOW 3 0 32 VBottom 2
SYMATTR InstName D1
SYMATTR Value MBRS140
SYMBOL IND 752 464 R270
WINDOW 0 32 56 VTop 2
WINDOW 3 5 56 VBottom 2
SYMATTR InstName L1
SYMATTR Value 10µ
SYMATTR SpiceLine Rser=0.02 Rpar=5000
SYMBOL RES 1056 656 R0
SYMATTR InstName R2
SYMATTR Value 324K
SYMBOL RES 1056 496 R0
SYMATTR InstName R1
SYMATTR Value 1Meg
SYMBOL RES 560 640 R90
WINDOW 0 0 56 VBottom 2
WINDOW 3 32 56 VTop 2
SYMATTR InstName R3
SYMATTR Value 33K
SYMBOL VOLTAGE 432 448 R0
SYMATTR InstName V1
SYMATTR Value 1.5
SYMBOL CAP 400 672 R0
SYMATTR InstName C3
SYMATTR Value 3300p
SYMBOL POWERPRODUCTS\\LT1317 704 656 R0
SYMATTR InstName U1
SYMBOL res 1264 448 R0
SYMATTR InstName Rload
SYMATTR Value 50
TEXT 1104 816 Left 2 !.tran 3m startup
