Version 4
SHEET 1 1544 896
WIRE 400 480 304 480
WIRE 512 480 400 480
WIRE 560 480 512 480
WIRE 672 480 640 480
WIRE 704 480 672 480
WIRE 816 480 768 480
WIRE 880 480 816 480
WIRE 1008 480 960 480
WIRE 1120 480 1008 480
WIRE 1216 480 1120 480
WIRE 304 496 304 480
WIRE 816 496 816 480
WIRE 1120 496 1120 480
WIRE 1216 496 1216 480
WIRE 1008 544 1008 480
WIRE 512 560 512 480
WIRE 672 560 672 480
WIRE 816 576 816 560
WIRE 304 592 304 576
WIRE 1120 592 1120 560
WIRE 1216 592 1216 576
WIRE 400 656 400 480
WIRE 432 656 400 656
WIRE 1008 656 1008 624
WIRE 1008 656 752 656
WIRE 1008 672 1008 656
WIRE 592 768 592 752
WIRE 1008 768 1008 752
FLAG 304 592 0
FLAG 592 768 0
FLAG 1216 592 0
FLAG 1120 592 0
FLAG 1008 768 0
FLAG 816 576 0
FLAG 1216 480 OUT
FLAG 304 480 IN
SYMBOL POLCAP 1104 560 M180
WINDOW 0 24 57 Left 2
WINDOW 3 24 8 Left 2
SYMATTR InstName C2
SYMATTR Value 4.7µ
SYMATTR SpiceLine Rser=0.02
SYMBOL SCHOTTKY 800 496 R0
SYMATTR InstName D1
SYMATTR Value MBR0530L
SYMBOL RES 992 656 R0
SYMATTR InstName R1
SYMATTR Value 24.9K
SYMBOL RES 992 528 R0
SYMATTR InstName R2
SYMATTR Value 150K
SYMBOL VOLTAGE 304 480 R0
SYMATTR InstName V1
SYMATTR Value 3.3
SYMBOL polcap 704 464 M90
WINDOW 0 0 32 VBottom 2
WINDOW 3 32 32 VTop 2
SYMATTR InstName C3
SYMATTR Value 1µ
SYMBOL ind2 976 496 M270
WINDOW 0 32 56 VTop 2
WINDOW 3 4 56 VBottom 2
SYMATTR InstName L1
SYMATTR Value 22µ
SYMATTR SpiceLine Rser=0.6
SYMBOL ind2 544 496 R270
WINDOW 0 32 56 VTop 2
WINDOW 3 4 56 VBottom 2
SYMATTR InstName L2
SYMATTR Value 22µ
SYMATTR SpiceLine Rser=0.6
SYMBOL PowerProducts\\LT1617-1 592 656 R0
SYMATTR InstName U1
SYMBOL RES 1200 480 R0
SYMATTR InstName Rload
SYMATTR Value 2K
TEXT 768 768 Left 2 !.tran 5m startup
TEXT 744 416 Center 2 !K1 L1 L2 1
