Version 4
SHEET 1 1272 800
WIRE 112 128 96 128
WIRE 192 128 176 128
WIRE 256 128 192 128
WIRE 480 128 336 128
WIRE 544 128 512 128
WIRE 656 128 624 128
WIRE 704 128 656 128
WIRE 832 128 784 128
WIRE 928 128 832 128
WIRE 1008 128 928 128
WIRE 1136 128 1072 128
WIRE 656 144 656 128
WIRE 832 160 832 128
WIRE 928 160 928 128
WIRE 0 192 0 176
WIRE 656 224 656 208
WIRE 256 240 256 208
WIRE 832 256 832 240
WIRE 928 256 928 224
WIRE 1024 256 928 256
WIRE 1136 256 1136 128
WIRE 1136 256 1104 256
WIRE 192 272 192 128
WIRE 224 272 192 272
WIRE 480 272 480 128
WIRE 480 272 304 272
WIRE 0 288 0 272
WIRE 224 304 192 304
WIRE 352 304 304 304
WIRE 992 320 992 304
WIRE 832 336 832 320
WIRE 112 352 112 336
WIRE 240 352 240 336
WIRE 256 352 256 336
WIRE 256 352 240 352
WIRE 272 352 272 336
WIRE 272 352 256 352
WIRE 256 368 256 352
WIRE 928 368 928 256
WIRE 960 368 928 368
WIRE 1136 400 1136 256
WIRE 1136 400 1104 400
WIRE 1200 400 1136 400
WIRE 752 432 736 432
WIRE 832 432 832 416
WIRE 832 432 816 432
WIRE 960 432 832 432
WIRE 112 448 112 432
WIRE 192 448 192 304
WIRE 192 448 112 448
WIRE 208 448 192 448
WIRE 288 448 272 448
WIRE 480 448 480 272
WIRE 480 448 368 448
WIRE 832 448 832 432
WIRE 112 464 112 448
WIRE 192 528 192 448
WIRE 512 528 512 128
WIRE 512 528 192 528
WIRE 832 544 832 528
WIRE 112 560 112 544
FLAG 0 288 0
FLAG 0 176 +V
FLAG 256 208 +V
FLAG 256 368 0
FLAG 112 336 +V
FLAG 112 560 0
FLAG 96 128 0
FLAG 992 480 0
FLAG 832 320 +V
FLAG 832 544 0
FLAG 736 432 0
FLAG 992 304 +V
FLAG 656 224 0
FLAG 832 256 0
FLAG 1200 400 SINE
FLAG 352 304 SQUARE
SYMBOL voltage 0 176 R0
SYMATTR InstName V1
SYMATTR Value 5
SYMBOL Comparators\\LT1711 256 288 R0
SYMATTR InstName U2
SYMBOL misc\\xtal 208 432 M90
WINDOW 0 0 32 VBottom 2
WINDOW 3 32 32 VTop 2
SYMATTR InstName C1
SYMATTR Value 1.6p
SYMATTR SpiceLine Rser=45 Lser=15.6m Cpar=6p
SYMBOL res 96 448 R0
SYMATTR InstName R1
SYMATTR Value 1k
SYMBOL res 96 336 R0
SYMATTR InstName R2
SYMATTR Value 1k
SYMBOL res 352 112 R90
WINDOW 0 0 56 VBottom 2
WINDOW 3 32 56 VTop 2
SYMATTR InstName R3
SYMATTR Value 1k
SYMBOL cap 176 112 R90
WINDOW 0 0 32 VBottom 2
WINDOW 3 32 32 VTop 2
SYMATTR InstName C2
SYMATTR Value 100n
SYMBOL res 384 432 R90
WINDOW 0 0 56 VBottom 2
WINDOW 3 32 56 VTop 2
SYMATTR InstName R4
SYMATTR Value 210
SYMBOL opamps\\LT1806 992 400 R0
SYMATTR InstName U1
SYMBOL res 1120 240 R90
WINDOW 0 0 56 VBottom 2
WINDOW 3 32 56 VTop 2
SYMATTR InstName R5
SYMATTR Value 15.8k
SYMBOL cap 912 224 M180
WINDOW 0 24 64 Left 2
WINDOW 3 24 8 Left 2
SYMATTR InstName C3
SYMATTR Value 100p
SYMBOL cap 1072 112 R90
WINDOW 0 0 32 VBottom 2
WINDOW 3 32 32 VTop 2
SYMATTR InstName C4
SYMATTR Value 100p
SYMBOL res 640 112 R90
WINDOW 0 0 56 VBottom 2
WINDOW 3 32 56 VTop 2
SYMATTR InstName R6
SYMATTR Value 1k
SYMBOL cap 640 208 M180
WINDOW 0 24 64 Left 2
WINDOW 3 24 8 Left 2
SYMATTR InstName C5
SYMATTR Value 100p
SYMBOL res 816 432 R0
SYMATTR InstName R7
SYMATTR Value 1k
SYMBOL res 816 320 R0
SYMATTR InstName R8
SYMATTR Value 1k
SYMBOL cap 752 416 M90
WINDOW 0 0 32 VBottom 2
WINDOW 3 32 32 VTop 2
SYMATTR InstName C6
SYMATTR Value 100n
SYMBOL res 800 112 R90
WINDOW 0 0 56 VBottom 2
WINDOW 3 32 56 VTop 2
SYMATTR InstName R9
SYMATTR Value 6.49k
SYMBOL res 816 256 M180
WINDOW 0 36 76 Left 2
WINDOW 3 36 40 Left 2
SYMATTR InstName R10
SYMATTR Value 162
TEXT 968 528 Left 2 !.tran 0 350u 340u startup
TEXT 592 32 Bottom 2 ;1MHz crystal oscillator with square and sine wave outputs
