Version 4
SHEET 1 2000 1632
WIRE 240 400 32 400
WIRE 704 400 240 400
WIRE 880 400 704 400
WIRE 512 496 368 496
WIRE 624 496 576 496
WIRE 880 512 880 400
WIRE 240 544 240 400
WIRE 368 544 368 496
WIRE 880 608 880 592
WIRE 96 624 -96 624
WIRE 128 624 96 624
WIRE 512 624 480 624
WIRE 544 624 512 624
WIRE 704 624 704 400
WIRE 704 624 624 624
WIRE -96 656 -96 624
WIRE 32 688 32 400
WIRE 128 688 32 688
WIRE 592 688 480 688
WIRE -96 752 -96 736
WIRE 128 752 80 752
WIRE 592 752 592 688
WIRE 592 752 480 752
WIRE 816 752 592 752
WIRE 992 752 816 752
WIRE 80 768 80 752
WIRE 816 768 816 752
WIRE 992 784 992 752
WIRE 672 816 480 816
WIRE 544 880 480 880
WIRE 816 880 816 832
WIRE 992 880 992 864
WIRE 544 896 544 880
WIRE 304 976 304 960
WIRE 544 992 544 960
WIRE 672 992 672 816
FLAG 304 976 0
FLAG -96 752 0
FLAG 96 624 IN
FLAG 880 608 0
FLAG 816 880 0
FLAG 992 752 OUT
FLAG 992 880 0
FLAG 544 992 0
FLAG 624 496 0
FLAG 672 992 0
FLAG 368 496 BIAS
FLAG 240 400 BIAS
FLAG 512 624 PG
FLAG 80 768 0
SYMBOL cap 512 512 R270
WINDOW 3 0 32 VBottom 2
WINDOW 0 32 32 VTop 2
SYMATTR Value 4.7u
SYMATTR InstName C1
SYMBOL voltage 880 496 R0
WINDOW 123 24 138 Left 2
WINDOW 39 24 117 Left 2
SYMATTR InstName V2
SYMATTR Value 5
SYMBOL voltage -96 640 R0
WINDOW 123 0 0 Left 0
WINDOW 39 0 0 Left 0
SYMATTR InstName V1
SYMATTR Value 1.65
SYMBOL cap 800 768 R0
WINDOW 3 26 56 Left 2
SYMATTR Value 10u
SYMATTR InstName C2
SYMATTR SpiceLine Rser=2m
SYMBOL cap 528 896 R0
WINDOW 0 51 24 Bottom 2
WINDOW 3 64 28 Top 2
WINDOW 39 53 32 VTop 2
SYMATTR InstName C3
SYMATTR Value 4.7u
SYMBOL res 640 608 R90
WINDOW 0 0 56 VBottom 2
WINDOW 3 32 56 VTop 2
SYMATTR InstName R1
SYMATTR Value 51k
SYMBOL LT3077_verify 304 720 R0
SYMATTR InstName U1
SYMATTR SpiceLine TA=0 Rth=45
SYMBOL res 976 768 R0
SYMATTR InstName R2
SYMATTR Value 1
TEXT 824 1000 Left 2 !.tran 0 500m 0 startup
