Version 4
SHEET 1 880 680
WIRE -16 96 -224 96
WIRE 16 96 -16 96
WIRE 336 96 304 96
WIRE 448 96 336 96
WIRE 560 96 448 96
WIRE 656 96 560 96
WIRE 560 112 560 96
WIRE 656 112 656 96
WIRE 336 160 304 160
WIRE -16 176 -16 96
WIRE 16 176 -16 176
WIRE -224 192 -224 176
WIRE 448 208 448 176
WIRE 448 208 304 208
WIRE 560 208 560 176
WIRE 656 208 656 192
WIRE -16 272 -224 272
WIRE 16 272 -16 272
WIRE 336 336 304 336
WIRE 448 336 336 336
WIRE 560 336 448 336
WIRE 656 336 560 336
WIRE -16 352 -16 272
WIRE 16 352 -16 352
WIRE 560 352 560 336
WIRE 656 352 656 336
WIRE -224 368 -224 352
WIRE 336 400 304 400
WIRE 16 448 -16 448
WIRE 448 448 448 416
WIRE 448 448 304 448
WIRE 560 448 560 416
WIRE 656 448 656 432
FLAG -16 448 0
FLAG -224 192 0
FLAG 448 288 0
FLAG 560 208 0
FLAG 656 208 0
FLAG 448 528 0
FLAG 560 448 0
FLAG 656 448 0
FLAG -224 368 0
SYMBOL cap 320 96 R0
WINDOW 0 27 14 Left 2
SYMATTR InstName C1
SYMATTR Value .01µ
SYMBOL cap 320 336 R0
WINDOW 0 29 12 Left 2
SYMATTR InstName C2
SYMATTR Value .01µ
SYMBOL voltage -224 80 R0
WINDOW 0 28 35 Left 2
WINDOW 3 9 97 Left 2
SYMATTR InstName V2
SYMATTR Value PWL(0 0 1 20)
SYMBOL res 432 80 R0
SYMATTR InstName R1
SYMATTR Value 422K
SYMBOL res 432 192 R0
SYMATTR InstName R2
SYMATTR Value 249K
SYMBOL cap 544 112 R0
SYMATTR InstName C3
SYMATTR Value 10µ
SYMBOL res 640 96 R0
SYMATTR InstName R3
SYMATTR Value 6.6
SYMBOL res 432 320 R0
SYMATTR InstName R4
SYMATTR Value 261K
SYMBOL res 432 432 R0
SYMATTR InstName R5
SYMATTR Value 249K
SYMBOL cap 544 352 R0
SYMATTR InstName C4
SYMATTR Value 10µ
SYMBOL res 640 336 R0
SYMATTR InstName R6
SYMATTR Value 25
SYMBOL voltage -224 256 R0
WINDOW 0 28 35 Left 2
WINDOW 3 9 97 Left 2
SYMATTR InstName V1
SYMATTR Value PWL(0 0 1 20)
SYMBOL PowerProducts\\LT3028 160 272 R0
SYMATTR InstName U1
TEXT 104 536 Left 2 !.tran 1
