Version 4
SHEET 1 2028 1044
WIRE -256 -288 -1040 -288
WIRE 0 -288 -176 -288
WIRE 256 -288 64 -288
WIRE 432 -288 256 -288
WIRE 672 -288 528 -288
WIRE 736 -288 672 -288
WIRE 896 -288 736 -288
WIRE 256 -272 256 -288
WIRE 736 -272 736 -288
WIRE 896 -272 896 -288
WIRE -1040 -256 -1040 -288
WIRE 512 -208 512 -240
WIRE 560 -208 512 -208
WIRE 560 -192 560 -208
WIRE 256 -176 256 -192
WIRE 320 -176 256 -176
WIRE 736 -176 736 -208
WIRE 896 -176 896 -192
WIRE 320 -160 320 -176
WIRE -1040 -144 -1040 -176
WIRE 256 -112 256 -176
WIRE 256 -112 224 -112
WIRE 560 -96 560 -112
WIRE -160 -80 -192 -80
WIRE 320 -80 320 -96
WIRE 512 -48 512 -208
WIRE 512 -48 224 -48
WIRE -352 -16 -368 -16
WIRE -160 -16 -272 -16
WIRE 560 -16 560 -32
WIRE 672 16 672 -288
WIRE 672 16 224 16
WIRE -272 48 -368 48
WIRE -160 48 -192 48
WIRE 288 80 224 80
WIRE 672 80 672 16
WIRE 672 80 368 80
WIRE -160 112 -192 112
WIRE 368 144 224 144
WIRE 672 144 672 80
WIRE 672 144 448 144
FLAG 320 -80 0
FLAG 560 -16 0
FLAG 736 -176 0
FLAG 896 -288 OUT
FLAG 896 -176 0
FLAG -1040 -144 0
FLAG -192 112 0
FLAG -368 -16 0
FLAG -192 -80 0
FLAG -368 48 0
SYMBOL nmos 432 -240 R270
WINDOW 0 58 45 VTop 2
WINDOW 3 -10 71 VLeft 2
SYMATTR InstName M1
SYMATTR Value SUD40N10-25
SYMBOL cap 544 -96 R0
SYMATTR InstName C10
SYMATTR Value 47n
SYMBOL res 544 -208 R0
SYMATTR InstName R6
SYMATTR Value 3.32K
SYMBOL polcap 720 -272 R0
WINDOW 3 42 36 Left 2
WINDOW 39 21 62 Left 2
SYMATTR Value 10µ
SYMATTR SpiceLine Rser=1.8
SYMATTR InstName C6
SYMATTR Description Capacitor
SYMATTR Type cap
SYMBOL cap 304 -160 R0
SYMATTR InstName C12
SYMATTR Value .1µ
SYMBOL res 240 -288 R0
SYMATTR InstName R5
SYMATTR Value 8.25
SYMBOL res -272 -272 R270
WINDOW 0 32 56 VTop 2
WINDOW 3 0 56 VBottom 2
SYMATTR InstName Rcable
SYMATTR Value 12
SYMBOL res 384 64 R90
WINDOW 0 0 56 VBottom 2
WINDOW 3 32 56 VTop 2
SYMATTR InstName R1
SYMATTR Value 100K
SYMBOL res 464 128 R90
WINDOW 0 0 56 VBottom 2
WINDOW 3 32 56 VTop 2
SYMATTR InstName R2
SYMATTR Value 100K
SYMBOL diode 0 -272 R270
WINDOW 0 32 32 VTop 2
WINDOW 3 0 32 VBottom 2
WINDOW 123 -18 32 VBottom 2
SYMATTR InstName D1
SYMATTR Value MURS120
SYMATTR Value2 N=2
SYMBOL res 880 -288 R0
SYMATTR InstName Rload
SYMATTR Value 4K
SYMBOL voltage -1040 -272 R0
WINDOW 123 25 120 Left 2
WINDOW 39 25 143 Left 2
WINDOW 40 8 166 Left 2
SYMATTR Value2 400m 6 401m 17 415m 17 416m 6 420m 6 421m 17 425m 17
SYMATTR SpiceLine 426m 6 430m 6 431m 17 435m 17 436m 6 440m 6 441m 17
SYMATTR SpiceLine2 445m 17 446m 6 450m 6 451m 17 455m 17 456m 6 460m 6 461m 57)
SYMATTR Value PWL(0 0 10m 7 160m 7 170m 5 325m 5 330m 8 360m 8 370m 6
SYMATTR InstName Vpse
SYMBOL LT4294 32 16 R0
SYMATTR InstName U1
SYMBOL res -256 -32 R90
WINDOW 0 -4 55 VBottom 2
WINDOW 3 30 53 VTop 2
SYMATTR InstName Rcls
SYMATTR Value 49.9
SYMBOL res -176 32 R90
WINDOW 0 -4 55 VBottom 2
WINDOW 3 30 53 VTop 2
SYMATTR InstName Rcls++
SYMATTR Value 118
TEXT 632 184 Left 2 !.tran 0.7
TEXT 32 -328 Bottom 2 ;Diode Bridge
