Version 4
SHEET 1 1448 1048
WIRE 16 -32 -336 -32
WIRE 128 -32 16 -32
WIRE 224 -32 128 -32
WIRE 320 -32 224 -32
WIRE -336 -16 -336 -32
WIRE 128 0 128 -32
WIRE 224 0 224 -32
WIRE 320 0 320 -32
WIRE 432 64 416 64
WIRE 496 64 432 64
WIRE -336 80 -336 64
WIRE 496 80 496 64
WIRE 432 144 432 64
WIRE 432 144 416 144
WIRE 496 160 496 144
WIRE 16 192 16 -32
WIRE 48 192 16 192
WIRE 432 224 416 224
WIRE 480 224 432 224
WIRE 480 240 480 224
WIRE 432 304 432 224
WIRE 432 304 416 304
WIRE 480 320 480 304
WIRE 128 416 128 384
WIRE 224 416 224 384
WIRE 320 416 320 384
WIRE 224 496 224 480
FLAG 128 416 0
FLAG 224 496 0
FLAG -336 80 0
FLAG 496 160 0
FLAG 480 320 0
FLAG 480 224 OUT1
FLAG 496 64 OUT2
FLAG -336 -32 IN
SYMBOL cap 208 416 R0
SYMATTR InstName C1
SYMATTR Value 1µ
SYMBOL voltage -336 -32 R0
WINDOW 123 0 0 Left 2
WINDOW 39 0 0 Left 2
SYMATTR InstName V3
SYMATTR Value PWL(0 0 100u 0 +2u 5.8)
SYMBOL cap 480 80 R0
SYMATTR InstName C2
SYMATTR Value 1µ
SYMBOL cap 464 240 R0
SYMATTR InstName C3
SYMATTR Value 1µ
SYMBOL LT6658-3.3 224 192 R0
SYMATTR InstName U1
TEXT 464 464 Left 2 !.tran 500u
