Version 4
SHEET 1 944 1352
WIRE 48 -64 -64 -64
WIRE 240 -64 48 -64
WIRE -64 -48 -64 -64
WIRE 240 -48 240 -64
WIRE 48 0 48 -64
WIRE 64 0 48 0
WIRE 464 0 416 0
WIRE 608 0 544 0
WIRE 720 0 608 0
WIRE 816 0 720 0
WIRE 720 16 720 0
WIRE 816 16 816 0
WIRE -64 48 -64 32
WIRE 48 80 48 0
WIRE 64 80 48 80
WIRE 608 80 416 80
WIRE 608 96 608 80
WIRE 720 112 720 80
WIRE 816 112 816 96
WIRE 48 160 48 80
WIRE 64 160 48 160
WIRE 608 192 608 176
WIRE 48 240 48 160
WIRE 64 240 48 240
WIRE 48 320 48 240
WIRE 64 320 48 320
WIRE 464 320 416 320
WIRE 608 320 544 320
WIRE 720 320 608 320
WIRE 816 320 720 320
WIRE 720 336 720 320
WIRE 816 336 816 320
WIRE 48 400 48 320
WIRE 64 400 48 400
WIRE 608 400 416 400
WIRE 608 416 608 400
WIRE 720 432 720 400
WIRE 816 432 816 416
WIRE 48 480 48 400
WIRE 64 480 48 480
WIRE 608 512 608 496
WIRE 48 560 48 480
WIRE 64 560 48 560
WIRE -32 640 -48 640
WIRE 64 640 48 640
WIRE 464 640 416 640
WIRE 608 640 544 640
WIRE 720 640 608 640
WIRE 816 640 720 640
WIRE 720 656 720 640
WIRE 816 656 816 640
WIRE -32 720 -48 720
WIRE 48 720 32 720
WIRE 64 720 48 720
WIRE 608 720 416 720
WIRE 608 736 608 720
WIRE 720 752 720 720
WIRE 816 752 816 736
WIRE 64 800 32 800
WIRE 608 832 608 816
WIRE 48 880 48 720
WIRE 64 880 48 880
WIRE 48 960 48 880
WIRE 64 960 48 960
WIRE 464 960 416 960
WIRE 608 960 544 960
WIRE 720 960 608 960
WIRE 816 960 720 960
WIRE 720 976 720 960
WIRE 816 976 816 960
WIRE 48 1040 48 960
WIRE 64 1040 48 1040
WIRE 608 1040 416 1040
WIRE 608 1056 608 1040
WIRE 720 1072 720 1040
WIRE 816 1072 816 1056
WIRE 48 1120 48 1040
WIRE 64 1120 48 1120
WIRE 608 1152 608 1136
WIRE 64 1200 48 1200
WIRE 240 1264 240 1248
FLAG -64 48 0
FLAG -48 640 0
FLAG 240 1264 0
FLAG 608 192 0
FLAG 720 112 0
FLAG 816 112 0
FLAG -64 -64 IN
FLAG 816 0 OUT1
FLAG -48 720 0
FLAG 608 512 0
FLAG 720 432 0
FLAG 816 432 0
FLAG 816 320 OUT2
FLAG 608 832 0
FLAG 720 752 0
FLAG 816 752 0
FLAG 816 640 OUT3
FLAG 608 1152 0
FLAG 720 1072 0
FLAG 816 1072 0
FLAG 816 960 OUT4
FLAG 32 800 0
SYMBOL voltage -64 -64 R0
SYMATTR InstName V1
SYMATTR Value 18
SYMBOL res 64 624 R90
WINDOW 0 0 56 VBottom 2
WINDOW 3 32 56 VTop 2
SYMATTR InstName R1
SYMATTR Value 100K
SYMBOL ind 448 16 R270
WINDOW 0 32 56 VTop 2
WINDOW 3 5 56 VBottom 2
SYMATTR InstName L1
SYMATTR Value 0.6µ
SYMBOL res 592 -16 R0
SYMATTR InstName R2
SYMATTR Value 14K
SYMBOL res 592 80 R0
SYMATTR InstName R3
SYMATTR Value 10K
SYMBOL cap 704 16 R0
WINDOW 123 24 78 Left 2
SYMATTR Value2 X2
SYMATTR InstName C5
SYMATTR Value 47µ
SYMBOL cap 32 704 R90
WINDOW 0 0 32 VBottom 2
WINDOW 3 32 32 VTop 2
SYMATTR InstName C6
SYMATTR Value 4.7µ
SYMBOL ind 448 336 R270
WINDOW 0 32 56 VTop 2
WINDOW 3 5 56 VBottom 2
SYMATTR InstName L2
SYMATTR Value 0.6µ
SYMBOL res 592 304 R0
SYMATTR InstName R4
SYMATTR Value 26.1K
SYMBOL res 592 400 R0
SYMATTR InstName R5
SYMATTR Value 10K
SYMBOL cap 704 336 R0
WINDOW 123 24 78 Left 2
SYMATTR Value2 X2
SYMATTR InstName C1
SYMATTR Value 47µ
SYMBOL res 800 0 R0
WINDOW 123 36 98 Left 2
SYMATTR InstName Rload1
SYMATTR Value 2.4
SYMATTR Value2 m=10
SYMBOL ind 448 656 R270
WINDOW 0 32 56 VTop 2
WINDOW 3 5 56 VBottom 2
SYMATTR InstName L3
SYMATTR Value 1.5µ
SYMBOL res 592 624 R0
SYMATTR InstName R6
SYMATTR Value 56.2K
SYMBOL res 592 720 R0
SYMATTR InstName R7
SYMATTR Value 10K
SYMBOL cap 704 656 R0
WINDOW 123 24 78 Left 2
SYMATTR Value2 X2
SYMATTR InstName C2
SYMATTR Value 47µ
SYMBOL res 800 320 R0
WINDOW 123 36 98 Left 2
SYMATTR InstName Rload2
SYMATTR Value 3.61
SYMATTR Value2 m=10
SYMBOL ind 448 976 R270
WINDOW 0 32 56 VTop 2
WINDOW 3 5 56 VBottom 2
SYMATTR InstName L4
SYMATTR Value 1.5µ
SYMBOL res 592 944 R0
SYMATTR InstName R8
SYMATTR Value 90.9K
SYMBOL res 592 1040 R0
SYMATTR InstName R9
SYMATTR Value 10K
SYMBOL cap 704 976 R0
WINDOW 123 24 78 Left 2
SYMATTR Value2 X2
SYMATTR InstName C3
SYMATTR Value 47µ
SYMBOL res 800 640 R0
WINDOW 123 36 98 Left 2
SYMATTR InstName Rload3
SYMATTR Value 6.65
SYMATTR Value2 m=10
SYMBOL res 800 960 R0
SYMATTR InstName Rload4
SYMATTR Value 1
SYMBOL LT7200S 240 592 R0
SYMATTR InstName U2
TEXT 136 1336 Left 2 !.tran 600u startup
