Version 4
SHEET 1 2040 680
WIRE -720 -1856 -832 -1856
WIRE -672 -1856 -720 -1856
WIRE -528 -1856 -576 -1856
WIRE -352 -1856 -528 -1856
WIRE -176 -1856 -352 -1856
WIRE -48 -1856 -176 -1856
WIRE -32 -1856 -48 -1856
WIRE 80 -1856 48 -1856
WIRE 96 -1856 80 -1856
WIRE 208 -1856 176 -1856
WIRE 384 -1856 208 -1856
WIRE 528 -1856 384 -1856
WIRE 704 -1856 528 -1856
WIRE 848 -1856 800 -1856
WIRE 944 -1856 848 -1856
WIRE 1008 -1856 944 -1856
WIRE 1088 -1856 1008 -1856
WIRE 1168 -1856 1088 -1856
WIRE 1200 -1856 1168 -1856
WIRE 1312 -1856 1280 -1856
WIRE 1392 -1856 1312 -1856
WIRE 1472 -1856 1392 -1856
WIRE 1536 -1856 1472 -1856
WIRE -832 -1840 -832 -1856
WIRE 848 -1840 848 -1856
WIRE 1008 -1840 1008 -1856
WIRE 1088 -1840 1088 -1856
WIRE 1392 -1840 1392 -1856
WIRE 1536 -1840 1536 -1856
WIRE -352 -1824 -352 -1856
WIRE 384 -1824 384 -1856
WIRE -176 -1776 -176 -1856
WIRE -48 -1776 -48 -1856
WIRE 80 -1776 80 -1856
WIRE 208 -1776 208 -1856
WIRE -832 -1744 -832 -1760
WIRE 848 -1744 848 -1776
WIRE 1008 -1744 1008 -1776
WIRE 1088 -1744 1088 -1776
WIRE 1392 -1744 1392 -1776
WIRE 1536 -1744 1536 -1760
WIRE -352 -1712 -352 -1760
WIRE -288 -1712 -352 -1712
WIRE 384 -1712 384 -1760
WIRE 384 -1712 320 -1712
WIRE -528 -1696 -528 -1856
WIRE 528 -1696 528 -1856
WIRE -448 -1616 -480 -1616
WIRE -416 -1616 -448 -1616
WIRE -288 -1616 -336 -1616
WIRE 368 -1616 320 -1616
WIRE 464 -1616 448 -1616
WIRE 480 -1616 464 -1616
WIRE -528 -1584 -528 -1600
WIRE 528 -1584 528 -1600
WIRE -448 -1520 -448 -1616
WIRE -416 -1520 -448 -1520
WIRE -288 -1520 -416 -1520
WIRE 400 -1520 320 -1520
WIRE 464 -1520 464 -1616
WIRE 464 -1520 400 -1520
WIRE -592 -1424 -592 -1808
WIRE -416 -1424 -592 -1424
WIRE -288 -1424 -336 -1424
WIRE 368 -1424 320 -1424
WIRE 720 -1424 720 -1808
WIRE 720 -1424 448 -1424
WIRE 1472 -1424 1472 -1856
WIRE -592 -1328 -592 -1424
WIRE -288 -1328 -592 -1328
WIRE 720 -1328 720 -1424
WIRE 720 -1328 320 -1328
WIRE -720 -1232 -720 -1856
WIRE -288 -1232 -720 -1232
WIRE 944 -1232 944 -1856
WIRE 944 -1232 320 -1232
WIRE -720 -1136 -720 -1152
WIRE -288 -1136 -720 -1136
WIRE 416 -1136 320 -1136
WIRE 464 -1136 416 -1136
WIRE 1168 -1136 1168 -1856
WIRE 1168 -1136 544 -1136
WIRE -720 -1120 -720 -1136
WIRE 416 -1120 416 -1136
WIRE -528 -1040 -544 -1040
WIRE -448 -1040 -464 -1040
WIRE -288 -1040 -448 -1040
WIRE 416 -1040 416 -1056
WIRE 416 -1040 320 -1040
WIRE 464 -1040 416 -1040
WIRE 1312 -1040 1312 -1856
WIRE 1312 -1040 544 -1040
WIRE -720 -1024 -720 -1040
WIRE -448 -944 -448 -1040
WIRE -432 -944 -448 -944
WIRE -288 -944 -352 -944
WIRE 1472 -944 1472 -1344
WIRE 1472 -944 320 -944
WIRE 1472 -912 1472 -944
WIRE 336 -848 320 -848
WIRE 496 -848 480 -848
WIRE 1472 -784 1472 -832
WIRE 352 -752 320 -752
WIRE 448 -752 416 -752
WIRE -288 -656 -320 -656
WIRE 352 -656 320 -656
WIRE -96 -576 -96 -592
WIRE 16 -576 16 -592
WIRE 128 -576 128 -592
WIRE 240 -576 240 -592
WIRE -208 -560 -208 -592
WIRE -96 -480 -96 -496
WIRE 16 -480 16 -496
WIRE 128 -480 128 -496
WIRE 240 -480 240 -496
FLAG 448 -752 0
FLAG 240 -480 0
FLAG 496 -848 0
FLAG -832 -1744 0
FLAG -720 -1024 0
FLAG 848 -1744 0
FLAG -832 -1856 IN
FLAG -528 -1584 0
FLAG 528 -1584 0
FLAG -544 -1040 0
FLAG 1472 -784 0
FLAG 1472 -1856 OUT
FLAG 128 -480 0
FLAG 352 -656 CLKout
FLAG 1008 -1744 0
FLAG -96 -480 0
FLAG -208 -560 0
FLAG -320 -656 0
FLAG 1088 -1744 0
FLAG 1392 -1744 0
FLAG 1536 -1744 0
FLAG -416 -1520 BG1
FLAG 400 -1520 BG2
FLAG 16 -480 0
SYMBOL cap 352 -736 R270
WINDOW 0 32 32 VTop 2
WINDOW 3 0 32 VBottom 2
SYMATTR InstName C1
SYMATTR Value 0.1µ
SYMBOL voltage -832 -1856 R0
WINDOW 123 24 138 Left 2
WINDOW 39 24 117 Left 2
SYMATTR Value 18
SYMATTR InstName V1
SYMBOL res -48 -1840 R270
WINDOW 0 32 56 VTop 2
WINDOW 3 0 56 VBottom 2
SYMATTR InstName R1
SYMATTR Value 1m
SYMBOL cap -368 -1760 M180
WINDOW 0 24 56 Left 2
WINDOW 3 24 8 Left 2
SYMATTR InstName C3
SYMATTR Value 0.1µ
SYMBOL nmos -672 -1808 R270
WINDOW 0 75 40 VTop 2
WINDOW 3 52 40 VTop 2
SYMATTR InstName Q1
SYMATTR Value BSC067N06LS3
SYMBOL nmos -480 -1696 M0
WINDOW 0 -2 1 Right 2
WINDOW 3 0 28 Right 2
SYMATTR InstName Q2
SYMATTR Value BSC100N06LS3
SYMBOL ind 80 -1840 R270
WINDOW 0 32 56 VTop 2
WINDOW 3 5 56 VBottom 2
SYMATTR InstName L1
SYMATTR Value 3.3µ
SYMATTR SpiceLine Rser=2m
SYMBOL res 1184 -1840 R270
WINDOW 0 32 56 VTop 2
WINDOW 3 0 56 VBottom 2
SYMATTR InstName R2
SYMATTR Value 1.5m
SYMBOL nmos 800 -1808 M270
WINDOW 0 73 49 VTop 2
WINDOW 3 52 43 VTop 2
SYMATTR InstName Q3
SYMATTR Value BSC093N04LS
SYMBOL nmos 480 -1696 R0
WINDOW 0 62 18 Left 2
WINDOW 3 63 60 Left 2
SYMATTR InstName Q4
SYMATTR Value BSC093N04LS
SYMBOL cap 368 -1760 M180
WINDOW 0 24 56 Left 2
WINDOW 3 24 8 Left 2
SYMATTR InstName C4
SYMATTR Value 0.1µ
SYMBOL res 224 -592 R0
SYMATTR InstName R3
SYMATTR Value 130K
SYMBOL res 1456 -1440 R0
SYMATTR InstName R4
SYMATTR Value 110K
SYMBOL cap -464 -1056 R90
WINDOW 0 0 32 VBottom 2
WINDOW 3 32 32 VTop 2
SYMATTR InstName C5
SYMATTR Value 4.7µ
SYMBOL res 1456 -928 R0
SYMATTR InstName R5
SYMATTR Value 10K
SYMBOL res -736 -1136 R0
SYMATTR InstName R6
SYMATTR Value 165K
SYMBOL res -736 -1248 R0
SYMATTR InstName R7
SYMATTR Value 383K
SYMBOL cap 832 -1840 R0
WINDOW 123 29 64 Left 2
WINDOW 3 36 35 Left 2
SYMATTR Value2 m=4
SYMATTR Value 560µ
SYMATTR InstName C7
SYMBOL res -336 -960 R90
WINDOW 0 0 56 VBottom 2
WINDOW 3 32 56 VTop 2
SYMATTR InstName R8
SYMATTR Value 100K
SYMBOL res 320 -832 R270
WINDOW 0 32 56 VTop 2
WINDOW 3 0 56 VBottom 2
SYMATTR InstName R9
SYMATTR Value 15K
SYMBOL res -320 -1632 R90
WINDOW 0 0 56 VBottom 2
WINDOW 3 32 56 VTop 2
SYMATTR InstName R10
SYMATTR Value 5.1
SYMBOL res -320 -1440 R90
WINDOW 0 0 56 VBottom 2
WINDOW 3 32 56 VTop 2
SYMATTR InstName R12
SYMATTR Value 5.1
SYMBOL res 112 -592 R0
SYMATTR InstName R13
SYMATTR Value 130K
SYMBOL cap 416 -832 R270
WINDOW 0 32 32 VTop 2
WINDOW 3 0 32 VBottom 2
SYMATTR InstName C2
SYMATTR Value 15n
SYMBOL res 464 -1632 R90
WINDOW 0 0 56 VBottom 2
WINDOW 3 32 56 VTop 2
SYMATTR InstName R11
SYMATTR Value 5.1
SYMBOL res 464 -1440 R90
WINDOW 0 0 56 VBottom 2
WINDOW 3 32 56 VTop 2
SYMATTR InstName R14
SYMATTR Value 5.1
SYMBOL cap 992 -1840 R0
WINDOW 123 29 64 Left 2
WINDOW 3 36 35 Left 2
SYMATTR Value 1µ
SYMATTR InstName C6
SYMBOL res -112 -592 R0
SYMATTR InstName R15
SYMATTR Value 225K
SYMBOL cap 1072 -1840 R0
WINDOW 123 29 64 Left 2
WINDOW 3 36 35 Left 2
SYMATTR Value2 m=4
SYMATTR Value 47µ
SYMATTR InstName C8
SYMBOL cap 1376 -1840 R0
WINDOW 123 29 64 Left 2
WINDOW 3 36 35 Left 2
SYMATTR Value 560µ
SYMATTR InstName C9
SYMBOL res 560 -1152 R90
WINDOW 0 0 56 VBottom 2
WINDOW 3 32 56 VTop 2
SYMATTR InstName R17
SYMATTR Value 5
SYMBOL res 560 -1056 R90
WINDOW 0 0 56 VBottom 2
WINDOW 3 32 56 VTop 2
SYMATTR InstName R18
SYMATTR Value 5
SYMBOL cap 400 -1120 R0
WINDOW 123 29 64 Left 2
WINDOW 3 36 35 Left 2
SYMATTR Value 1µ
SYMATTR InstName C10
SYMBOL res 0 -592 R0
SYMATTR InstName R16
SYMATTR Value 150K
SYMBOL LT8292 16 -1184 R0
SYMATTR InstName U2
SYMBOL res 1520 -1856 R0
SYMATTR InstName R19
SYMATTR Value 0.48
TEXT -40 -408 Left 2 !.tran 15m startup
