Version 4
SHEET 1 964 680
WIRE -16 -32 -64 -32
WIRE 32 -32 -16 -32
WIRE 144 -32 32 -32
WIRE 176 -32 144 -32
WIRE 304 -32 256 -32
WIRE 432 -32 304 -32
WIRE 608 -32 496 -32
WIRE 736 -32 608 -32
WIRE 816 -32 736 -32
WIRE 864 -32 816 -32
WIRE 736 -16 736 -32
WIRE 864 -16 864 -32
WIRE -64 0 -64 -32
WIRE 608 0 608 -32
WIRE 144 16 144 -32
WIRE 304 16 304 -32
WIRE 32 80 32 -32
WIRE 64 80 32 80
WIRE 400 80 384 80
WIRE 480 80 464 80
WIRE 736 80 736 48
WIRE 864 80 864 64
WIRE -64 96 -64 80
WIRE 608 112 608 80
WIRE 608 112 560 112
WIRE 608 128 608 112
WIRE 560 176 560 112
WIRE 560 176 384 176
WIRE 608 224 608 208
WIRE -32 272 -48 272
WIRE 64 272 48 272
WIRE 400 272 384 272
WIRE 496 272 480 272
WIRE 576 272 560 272
WIRE -16 368 -48 368
WIRE 64 368 48 368
WIRE 400 368 384 368
WIRE 224 448 224 432
FLAG -64 96 0
FLAG 864 80 0
FLAG 736 80 0
FLAG 400 368 0
FLAG 224 448 0
FLAG -48 272 0
FLAG -48 368 0
FLAG 576 272 0
FLAG 608 224 0
FLAG 816 -32 OUT
FLAG -16 -32 IN
FLAG 480 80 0
SYMBOL voltage -64 -16 R0
SYMATTR InstName V1
SYMATTR Value 12
SYMBOL ind 160 -16 R270
WINDOW 0 32 56 VTop 2
WINDOW 3 5 56 VBottom 2
SYMATTR InstName L1
SYMATTR Value 3.3µ
SYMATTR SpiceLine Rser=.5
SYMBOL schottky 432 -16 R270
WINDOW 0 32 32 VTop 2
WINDOW 3 0 32 VBottom 2
SYMATTR InstName D1
SYMATTR Value MBRS1100
SYMATTR Description Diode
SYMATTR Type diode
SYMBOL cap 720 -16 R0
WINDOW 123 34 77 Left 2
WINDOW 3 36 54 Left 2
WINDOW 0 34 7 Left 2
SYMATTR Value2 m=2
SYMATTR Value 4.7µ
SYMATTR InstName C1
SYMBOL res 592 112 R0
SYMATTR InstName R1
SYMATTR Value 34.8K
SYMBOL cap 560 256 R90
WINDOW 0 0 32 VBottom 2
WINDOW 3 32 32 VTop 2
WINDOW 123 50 32 VTop 2
SYMATTR InstName C2
SYMATTR Value 2.2n
SYMBOL cap 48 352 R90
WINDOW 0 0 32 VBottom 2
WINDOW 3 32 32 VTop 2
SYMATTR InstName C3
SYMATTR Value 3.3n
SYMBOL res 64 256 R90
WINDOW 0 0 56 VBottom 2
WINDOW 3 32 56 VTop 2
SYMATTR InstName R2
SYMATTR Value 20K
SYMBOL cap 400 64 M90
WINDOW 0 0 32 VBottom 2
WINDOW 3 32 32 VTop 2
SYMATTR InstName C4
SYMATTR Value 1µ
SYMBOL res 592 -16 R0
SYMATTR InstName R3
SYMATTR Value 1Meg
SYMBOL res 848 -32 R0
SYMATTR InstName Rload
SYMATTR Value 75
SYMBOL res 384 288 R270
WINDOW 0 32 56 VTop 2
WINDOW 3 0 56 VBottom 2
SYMATTR InstName R4
SYMATTR Value 36.5K
SYMBOL LT8364 224 224 R0
SYMATTR InstName U1
TEXT 560 456 Left 2 !.tran 2m startup
