Version 4
SHEET 1 2084 916
WIRE 256 -256 224 -256
WIRE 368 -256 336 -256
WIRE 224 -208 224 -256
WIRE 368 -208 368 -256
WIRE -272 -128 -400 -128
WIRE -144 -128 -272 -128
WIRE 0 -128 -144 -128
WIRE 656 -128 592 -128
WIRE 736 -128 656 -128
WIRE 768 -128 736 -128
WIRE 880 -128 848 -128
WIRE 960 -128 880 -128
WIRE 1040 -128 960 -128
WIRE 1136 -128 1040 -128
WIRE 656 -112 656 -128
WIRE 1136 -112 1136 -128
WIRE -400 -96 -400 -128
WIRE 1040 -96 1040 -128
WIRE -272 -80 -272 -128
WIRE -144 -80 -144 -128
WIRE 656 -32 656 -48
WIRE 1040 -16 1040 -32
WIRE 1136 -16 1136 -32
WIRE 736 0 736 -128
WIRE 736 0 592 0
WIRE -400 32 -400 -16
WIRE -272 32 -272 -16
WIRE -144 32 -144 0
WIRE 0 32 -144 32
WIRE 960 32 960 -128
WIRE -144 48 -144 32
WIRE 880 80 880 -128
WIRE 880 80 592 80
WIRE -144 144 -144 128
WIRE 960 160 960 112
WIRE 960 160 592 160
WIRE 960 192 960 160
WIRE -240 256 -272 256
WIRE -144 256 -176 256
WIRE 0 256 -144 256
WIRE 960 304 960 272
WIRE -144 336 -144 256
WIRE -112 336 -144 336
WIRE 0 336 -32 336
WIRE 608 336 592 336
WIRE 0 416 -32 416
WIRE 608 416 592 416
WIRE 720 416 688 416
WIRE 816 416 784 416
WIRE -32 496 -32 416
WIRE 0 496 -32 496
WIRE 608 496 592 496
WIRE 704 496 672 496
WIRE -144 576 -144 336
WIRE 0 576 -144 576
WIRE 608 576 592 576
WIRE 704 576 688 576
WIRE -144 656 -144 576
WIRE 0 656 -144 656
WIRE 608 656 592 656
WIRE 608 736 592 736
WIRE 704 736 672 736
WIRE 304 832 304 816
FLAG 304 832 0
FLAG -144 144 0
FLAG -272 32 0
FLAG -400 32 0
FLAG 960 304 0
FLAG 656 -32 0
FLAG 816 416 0
FLAG 704 496 0
FLAG 704 576 0
FLAG 608 656 0
FLAG -400 -128 IN
FLAG 1136 -128 OUT
FLAG 1040 -16 0
FLAG 1136 -16 0
FLAG 704 736 0
FLAG 608 336 0
FLAG -272 256 0
SYMBOL ind 240 -240 R270
WINDOW 0 32 56 VTop 2
WINDOW 3 5 56 VBottom 2
SYMATTR InstName L1
SYMATTR Value 2.2µ
SYMBOL res -16 320 R90
WINDOW 0 0 56 VBottom 2
WINDOW 3 32 56 VTop 2
SYMATTR InstName R1
SYMATTR Value 100k
SYMBOL res -160 -96 R0
SYMATTR InstName R2
SYMATTR Value 499k
SYMBOL res -160 32 R0
SYMATTR InstName R3
SYMATTR Value 115K
SYMBOL cap -288 -80 R0
SYMATTR InstName C5
SYMATTR Value 10µ
SYMBOL voltage -400 -112 R0
WINDOW 123 0 0 Left 0
WINDOW 39 0 0 Left 0
SYMATTR InstName V1
SYMATTR Value 12
SYMBOL res 944 16 R0
SYMATTR InstName R6
SYMATTR Value 110k
SYMBOL res 944 176 R0
SYMATTR InstName R7
SYMATTR Value 10k
SYMBOL cap 640 -112 R0
SYMATTR InstName C6
SYMATTR Value 4.7µ
SYMBOL res 752 -144 M90
WINDOW 0 0 56 VBottom 2
WINDOW 3 32 56 VTop 2
SYMATTR InstName R8
SYMATTR Value 30m
SYMBOL res 704 400 R90
WINDOW 0 0 56 VBottom 2
WINDOW 3 32 56 VTop 2
SYMATTR InstName R9
SYMATTR Value 3.9k
SYMBOL cap 784 400 R90
WINDOW 0 0 32 VBottom 2
WINDOW 3 32 32 VTop 2
SYMATTR InstName C7
SYMATTR Value 3.3n
SYMBOL cap 672 480 R90
WINDOW 0 0 32 VBottom 2
WINDOW 3 32 32 VTop 2
SYMATTR InstName C8
SYMATTR Value 10n
SYMBOL res 704 560 R90
WINDOW 0 0 56 VBottom 2
WINDOW 3 32 56 VTop 2
SYMATTR InstName R10
SYMATTR Value 14.3k
SYMBOL cap 1024 -96 R0
SYMATTR InstName C10
SYMATTR Value 47µ
SYMBOL res 1120 -128 R0
SYMATTR InstName Rload
SYMATTR Value 6
SYMBOL LT8350S 304 288 R0
SYMATTR InstName U1
SYMBOL cap 672 720 R90
WINDOW 0 0 32 VBottom 2
WINDOW 3 32 32 VTop 2
SYMATTR InstName C1
SYMATTR Value 15p
SYMBOL cap -176 240 R90
WINDOW 0 0 32 VBottom 2
WINDOW 3 32 32 VTop 2
SYMATTR InstName C2
SYMATTR Value 1µ
TEXT 248 888 Left 2 !.tran 2m startup
