Version 4
SHEET 1 2264 1036
WIRE -256 -256 -352 -256
WIRE -128 -256 -256 -256
WIRE 16 -256 -128 -256
WIRE 192 -256 96 -256
WIRE 224 -256 192 -256
WIRE 320 -256 288 -256
WIRE -352 -240 -352 -256
WIRE -256 -240 -256 -256
WIRE 192 -208 192 -256
WIRE 320 -208 320 -256
WIRE 528 -208 496 -208
WIRE 544 -208 528 -208
WIRE 672 -208 544 -208
WIRE 768 -208 672 -208
WIRE -128 -192 -128 -256
WIRE -32 -192 -128 -192
WIRE 544 -192 544 -208
WIRE 672 -192 672 -208
WIRE -32 -176 -32 -192
WIRE 48 -176 -32 -176
WIRE 496 -176 496 -208
WIRE 496 -176 464 -176
WIRE -352 -144 -352 -160
WIRE -256 -144 -256 -176
WIRE 672 -112 672 -128
WIRE -128 -96 -128 -112
WIRE 48 -96 -128 -96
WIRE 544 -96 544 -112
WIRE 544 -96 464 -96
WIRE 544 -80 544 -96
WIRE 768 -48 768 -208
WIRE 768 -48 704 -48
WIRE 768 -32 768 -48
WIRE 48 -16 -128 -16
WIRE 496 -16 464 -16
WIRE -128 16 -128 -16
WIRE 544 16 544 0
WIRE 496 48 496 -16
WIRE 704 48 704 -48
WIRE 704 48 496 48
WIRE 48 64 16 64
WIRE 768 64 768 48
WIRE 768 64 464 64
WIRE -128 128 -128 96
WIRE 768 128 768 64
WIRE -48 144 -80 144
WIRE 48 144 16 144
WIRE 720 144 464 144
WIRE 48 224 16 224
WIRE 768 240 768 224
WIRE -160 304 -176 304
WIRE -80 304 -96 304
WIRE 48 304 -80 304
WIRE 480 304 464 304
WIRE 560 304 544 304
WIRE 768 336 768 304
WIRE -80 384 -80 304
WIRE -64 384 -80 384
WIRE 48 384 16 384
WIRE 512 384 464 384
WIRE -80 464 -80 384
WIRE -64 464 -80 464
WIRE 48 464 16 464
WIRE 496 464 464 464
WIRE 192 512 192 496
WIRE 320 528 320 496
WIRE 192 608 192 592
WIRE 320 608 320 592
FLAG 192 608 0
FLAG 320 608 0
FLAG 560 304 0
FLAG 496 464 0
FLAG 672 -112 0
FLAG -80 144 0
FLAG -176 304 0
FLAG 544 16 0
FLAG -352 -144 0
FLAG -352 -256 IN
FLAG -128 128 0
FLAG 512 384 0
FLAG 528 -208 OUT
FLAG 768 336 0
FLAG 16 64 0
FLAG -256 -144 0
SYMBOL ind 0 -240 R270
WINDOW 0 32 56 VTop 2
WINDOW 3 5 56 VBottom 2
SYMATTR InstName L1
SYMATTR Value 4.7µ
SYMBOL cap 288 -272 R90
WINDOW 0 0 32 VBottom 2
WINDOW 3 32 32 VTop 2
SYMATTR InstName C1
SYMATTR Value 33n
SYMBOL cap 656 -192 R0
SYMATTR InstName C2
SYMATTR Value 4.7µ
SYMBOL cap 304 528 R0
WINDOW 3 44 31 Left 2
WINDOW 39 25 58 Left 2
SYMATTR Value 4.7n
SYMATTR SpiceLine Rser=10K
SYMATTR InstName C3
SYMBOL cap 480 320 R270
WINDOW 0 32 32 VTop 2
WINDOW 3 0 32 VBottom 2
SYMATTR InstName C4
SYMATTR Value 33n
SYMBOL cap -96 288 R90
WINDOW 0 0 32 VBottom 2
WINDOW 3 32 32 VTop 2
SYMATTR InstName C5
SYMATTR Value 2.2µ
SYMBOL res -80 400 R270
WINDOW 0 32 56 VTop 2
WINDOW 3 0 56 VBottom 2
SYMATTR InstName R1
SYMATTR Value 100K
SYMBOL res 176 496 R0
SYMATTR InstName R2
SYMATTR Value 45.3K
SYMBOL res 752 -48 R0
SYMATTR InstName R3
SYMATTR Value 333m
SYMBOL res 528 -208 R0
SYMATTR InstName R4
SYMATTR Value 549K
SYMBOL res 528 -96 R0
SYMATTR InstName R5
SYMATTR Value 12.1K
SYMBOL cap 16 128 R90
WINDOW 0 0 71 VBottom 2
WINDOW 3 -29 16 VTop 2
SYMATTR InstName C6
SYMATTR Value 0.1µ
SYMBOL voltage -352 -256 R0
WINDOW 123 0 0 Left 2
WINDOW 39 0 0 Left 2
WINDOW 3 -241 56 Left 2
SYMATTR Value PWL(0 0 1m 12)
SYMATTR InstName V1
SYMBOL pmos 720 224 M180
WINDOW 0 60 76 Left 2
WINDOW 3 59 40 Left 2
SYMATTR InstName M1
SYMATTR Value RSR015P06
SYMBOL res -144 -208 R0
WINDOW 3 38 70 Left 2
WINDOW 0 38 36 Left 2
SYMATTR Value 499K
SYMATTR InstName R6
SYMBOL res -144 -112 R0
WINDOW 3 39 68 Left 2
WINDOW 0 40 38 Left 2
SYMATTR Value 140K
SYMATTR InstName R7
SYMBOL res -144 0 R0
WINDOW 3 39 74 Left 2
WINDOW 0 40 36 Left 2
SYMATTR Value 28K
SYMATTR InstName R8
SYMBOL res -80 448 M90
WINDOW 0 0 56 VBottom 2
WINDOW 3 32 56 VTop 2
SYMATTR InstName R9
SYMATTR Value 100K
SYMBOL LED 752 240 R0
WINDOW 123 88 74 Left 2
WINDOW 3 86 48 Left 2
SYMATTR Value2 n=16
SYMATTR Value XP-E2-WHT
SYMATTR InstName D1
SYMATTR Description Diode
SYMATTR Type diode
SYMBOL res 32 128 M0
WINDOW 0 42 54 Left 2
WINDOW 3 31 78 Left 2
SYMATTR InstName R10
SYMATTR Value 100K
SYMBOL cap -272 -240 R0
SYMATTR InstName C7
SYMATTR Value 4.7µ
SYMBOL LT8386 256 144 R0
SYMATTR InstName U2
TEXT -520 696 Left 2 !.tran 0 4m 0 1u startup
