Version 4
SHEET 1 1064 680
WIRE 768 -96 608 -96
WIRE 800 -96 768 -96
WIRE -64 -48 -192 -48
WIRE 32 -48 -64 -48
WIRE 336 -48 288 -48
WIRE 448 -48 416 -48
WIRE 608 -48 608 -96
WIRE 800 -48 800 -96
WIRE -192 -16 -192 -48
WIRE -64 -16 -64 -48
WIRE 448 32 448 -48
WIRE 448 32 288 32
WIRE 560 32 448 32
WIRE 800 48 800 32
WIRE -192 80 -192 64
WIRE -64 80 -64 48
WIRE 352 96 288 96
WIRE 352 112 352 96
WIRE 32 176 -192 176
WIRE 352 192 352 176
WIRE 352 192 288 192
WIRE 608 192 608 48
WIRE 608 192 352 192
WIRE 640 192 608 192
WIRE 768 192 720 192
WIRE 800 192 768 192
WIRE 896 192 800 192
WIRE 336 256 288 256
WIRE 448 256 416 256
WIRE 608 256 608 192
WIRE 896 256 896 192
WIRE 32 272 -80 272
WIRE 800 272 800 192
WIRE 448 336 448 256
WIRE 448 336 288 336
WIRE 560 336 448 336
WIRE 800 384 800 336
WIRE 896 384 896 336
WIRE -80 400 -80 272
WIRE 160 416 160 368
WIRE 608 416 608 352
WIRE -192 464 -192 176
WIRE -80 496 -80 480
WIRE -192 560 -192 544
FLAG 608 416 0
FLAG 160 416 0
FLAG 800 384 0
FLAG 800 48 0
FLAG -64 80 0
FLAG -192 80 0
FLAG -192 560 0
FLAG -80 496 0
FLAG 768 192 OUT
FLAG 896 384 0
FLAG 768 -96 IN
SYMBOL res 432 -64 R90
WINDOW 0 0 56 VBottom 2
WINDOW 3 32 56 VTop 2
SYMATTR InstName R1
SYMATTR Value 3.32
SYMBOL res 432 240 R90
WINDOW 0 0 56 VBottom 2
WINDOW 3 32 56 VTop 2
SYMATTR InstName R2
SYMATTR Value 3.32
SYMBOL ind 624 208 R270
WINDOW 0 32 56 VTop 2
WINDOW 3 5 56 VBottom 2
SYMATTR InstName L1
SYMATTR Value 10µ
SYMBOL cap -80 -16 R0
SYMATTR InstName C1
SYMATTR Value 1µ
SYMBOL voltage -192 -32 R0
WINDOW 123 0 0 Left 0
WINDOW 39 0 0 Left 0
SYMATTR InstName V1
SYMATTR Value 5
SYMBOL cap 336 112 R0
SYMATTR InstName C2
SYMATTR Value 0.1µ
SYMBOL voltage 800 -64 R0
WINDOW 123 0 0 Left 0
WINDOW 39 0 0 Left 0
SYMATTR InstName V2
SYMATTR Value 48
SYMBOL cap 784 272 R0
SYMATTR InstName C3
SYMATTR Value 10µ
SYMBOL voltage -192 448 R0
WINDOW 123 0 0 Left 0
WINDOW 39 0 0 Left 0
SYMATTR InstName V3
SYMATTR Value PULSE(0 2 50u 1n 1n 1u 2u)
SYMBOL voltage -80 384 R0
SYMATTR InstName V4
SYMATTR Value PULSE(0 2 51.05u 1n 1n 0.9u 2u)
SYMBOL EPC2204 528 32 R0
SYMATTR InstName U2
SYMBOL EPC2204 528 336 R0
SYMATTR InstName U3
SYMBOL res 880 240 R0
SYMATTR InstName R3
SYMATTR Value 20
SYMBOL LT8418 160 144 R0
SYMATTR InstName U1
TEXT -232 608 Left 2 !.tran 0.6m startup
