Version 4
SHEET 1 1748 780
WIRE -80 48 -144 48
WIRE -48 48 -80 48
WIRE 16 48 -48 48
WIRE 368 48 304 48
WIRE -144 64 -144 48
WIRE 368 64 368 48
WIRE -48 144 -48 48
WIRE 16 144 -48 144
WIRE 368 144 368 128
WIRE 368 144 304 144
WIRE 464 144 368 144
WIRE 576 144 544 144
WIRE 640 144 576 144
WIRE 752 144 640 144
WIRE 784 144 752 144
WIRE -144 160 -144 144
WIRE 640 160 640 144
WIRE 784 160 784 144
WIRE 16 240 -48 240
WIRE 576 240 576 144
WIRE 576 240 304 240
WIRE -48 256 -48 240
WIRE 640 256 640 224
WIRE 784 256 784 240
WIRE -48 336 -48 320
WIRE 576 336 576 240
WIRE 576 336 304 336
WIRE 16 432 -144 432
WIRE -144 448 -144 432
WIRE -144 528 -144 512
WIRE 16 528 -48 528
WIRE 336 528 304 528
WIRE 576 528 576 336
WIRE 576 528 416 528
WIRE -48 544 -48 528
WIRE 160 592 160 576
WIRE -48 640 -48 624
FLAG 640 256 0
FLAG 752 144 OUT
FLAG -48 640 0
FLAG -144 160 0
FLAG 160 592 0
FLAG 784 256 0
FLAG -48 336 0
FLAG -80 48 IN
FLAG -144 528 0
SYMBOL ind 448 160 R270
WINDOW 0 32 56 VTop 2
WINDOW 3 5 56 VBottom 2
SYMATTR InstName L1
SYMATTR Value 120µ
SYMATTR SpiceLine Rser=0.8
SYMBOL cap 624 160 R0
SYMATTR InstName C1
SYMATTR Value 22µ
SYMATTR SpiceLine Rser=2m
SYMBOL res -64 528 R0
SYMATTR InstName R2
SYMATTR Value 110K
SYMBOL voltage -144 48 R0
WINDOW 123 0 0 Left 0
WINDOW 39 0 0 Left 0
SYMATTR InstName V1
SYMATTR Value 12
SYMBOL res 432 512 R90
WINDOW 0 0 56 VBottom 2
WINDOW 3 32 56 VTop 2
SYMATTR InstName R3
SYMATTR Value 100k
SYMBOL res 768 144 R0
SYMATTR InstName Rload
SYMATTR Value 33
SYMBOL cap 352 64 R0
SYMATTR InstName C2
SYMATTR Value 47n
SYMBOL cap -64 256 R0
SYMATTR InstName C3
SYMATTR Value 1µ
SYMBOL cap -160 448 R0
SYMATTR InstName C4
SYMATTR Value 10n
SYMBOL LT8618A-3.3 160 240 R0
SYMATTR InstName U1
TEXT 272 632 Left 2 !.tran 10m startup
