Version 4
SHEET 1 1068 680
WIRE 64 -80 -32 -80
WIRE 256 -80 64 -80
WIRE -32 -48 -32 -80
WIRE 256 -48 256 -80
WIRE 64 0 64 -80
WIRE 112 0 64 0
WIRE 416 0 400 0
WIRE 496 0 480 0
WIRE -32 48 -32 32
WIRE 112 96 64 96
WIRE 624 96 400 96
WIRE 432 192 400 192
WIRE 432 208 432 192
WIRE 32 288 16 288
WIRE 112 288 96 288
WIRE 432 288 432 272
WIRE 432 288 400 288
WIRE 512 288 432 288
WIRE 624 288 624 96
WIRE 624 288 592 288
WIRE 736 288 624 288
WIRE 832 288 736 288
WIRE 928 288 832 288
WIRE 624 304 624 288
WIRE 736 304 736 288
WIRE 832 304 832 288
WIRE 928 304 928 288
WIRE 112 384 32 384
WIRE 624 384 400 384
WIRE 736 384 736 368
WIRE 736 384 624 384
WIRE 32 400 32 384
WIRE 624 400 624 384
WIRE 832 400 832 368
WIRE 928 400 928 384
WIRE 192 448 192 432
WIRE 320 448 320 432
WIRE 32 496 32 480
WIRE 624 496 624 480
FLAG 192 448 0
FLAG 320 448 0
FLAG 32 496 0
FLAG 16 288 0
FLAG -32 48 0
FLAG 496 0 0
FLAG 832 400 0
FLAG 624 496 0
FLAG 928 400 0
FLAG 928 288 OUT
FLAG -32 -80 IN
FLAG 64 96 0
SYMBOL res 16 384 R0
SYMATTR InstName R1
SYMATTR Value 60.4K
SYMBOL cap 96 272 R90
WINDOW 0 0 32 VBottom 2
WINDOW 3 32 32 VTop 2
SYMATTR InstName C1
SYMATTR Value .001µ
SYMBOL voltage -32 -64 R0
SYMATTR InstName V1
SYMATTR Value 12
SYMBOL cap 416 16 R270
WINDOW 0 32 32 VTop 2
WINDOW 3 0 32 VBottom 2
SYMATTR InstName C2
SYMATTR Value 1µ
SYMBOL ind 496 304 R270
WINDOW 0 32 56 VTop 2
WINDOW 3 5 56 VBottom 2
SYMATTR InstName L1
SYMATTR Value 4.7µ
SYMATTR SpiceLine Rser=3m
SYMBOL cap 416 208 R0
SYMATTR InstName C3
SYMATTR Value 0.1µ
SYMBOL cap 816 304 R0
SYMATTR InstName C4
SYMATTR Value 47µ
SYMATTR SpiceLine V=6.3 Irms=0 Rser=0.002 Lser=0 mfg="TDK" pn="C4532X5ROJ47@M" type="X5R"
SYMBOL res 608 288 R0
SYMATTR InstName R2
SYMATTR Value 1Meg
SYMBOL res 608 384 R0
SYMATTR InstName R3
SYMATTR Value 243K
SYMBOL cap 720 304 R0
SYMATTR InstName C5
SYMATTR Value 10p
SYMBOL res 912 288 R0
SYMATTR InstName Rload
SYMATTR Value 2
SYMBOL LT8610 256 192 R0
SYMATTR InstName U1
TEXT 848 488 Left 2 !.tran 750u startup
