Version 4
SHEET 1 1112 696
WIRE -16 -256 -48 -256
WIRE 32 -256 -16 -256
WIRE 176 -256 32 -256
WIRE 416 -256 304 -256
WIRE 480 -256 416 -256
WIRE 512 -256 480 -256
WIRE -48 -224 -48 -256
WIRE 176 -224 176 -256
WIRE 304 -224 304 -256
WIRE 512 -224 512 -256
WIRE 32 -160 32 -256
WIRE 96 -160 32 -160
WIRE 416 -160 416 -256
WIRE 416 -160 384 -160
WIRE -48 -128 -48 -144
WIRE 512 -128 512 -144
WIRE 96 -64 16 -64
WIRE 432 -64 384 -64
WIRE 16 -48 16 -64
WIRE 432 -48 432 -64
WIRE -464 32 -528 32
WIRE -400 32 -464 32
WIRE -272 32 -400 32
WIRE -176 32 -272 32
WIRE -112 32 -176 32
WIRE 16 32 16 16
WIRE 16 32 -32 32
WIRE 96 32 16 32
WIRE 432 32 432 16
WIRE 432 32 384 32
WIRE 512 32 432 32
WIRE 640 32 592 32
WIRE 736 32 640 32
WIRE 848 32 736 32
WIRE 912 32 848 32
WIRE 960 32 912 32
WIRE -528 48 -528 32
WIRE -400 48 -400 32
WIRE -272 48 -272 32
WIRE -176 48 -176 32
WIRE 640 48 640 32
WIRE 736 48 736 32
WIRE 848 48 848 32
WIRE 960 48 960 32
WIRE 96 128 16 128
WIRE 448 128 384 128
WIRE -528 144 -528 128
WIRE -400 144 -400 112
WIRE -272 144 -272 112
WIRE -176 144 -176 128
WIRE -176 144 -272 144
WIRE 16 144 16 128
WIRE 16 144 -176 144
WIRE 448 144 448 128
WIRE 640 144 640 128
WIRE 640 144 448 144
WIRE 736 144 736 112
WIRE 736 144 640 144
WIRE 848 144 848 112
WIRE 960 144 960 128
WIRE -176 160 -176 144
WIRE 640 160 640 144
WIRE 416 176 48 176
WIRE 48 224 48 176
WIRE 96 224 48 224
WIRE 416 224 416 176
WIRE 416 224 384 224
WIRE -176 256 -176 240
WIRE 640 256 640 240
WIRE 16 320 0 320
WIRE 96 320 80 320
WIRE 432 320 384 320
WIRE 512 320 496 320
WIRE 96 416 80 416
WIRE 416 416 416 224
WIRE 416 416 384 416
WIRE 432 416 416 416
WIRE 512 416 496 416
WIRE 0 608 -16 608
WIRE 96 608 80 608
WIRE 400 608 384 608
WIRE 304 672 304 656
FLAG -48 -128 0
FLAG -176 256 0
FLAG -528 144 0
FLAG -400 144 0
FLAG 80 416 0
FLAG 0 320 0
FLAG -16 608 0
FLAG 304 672 0
FLAG 512 -128 0
FLAG 640 256 0
FLAG 960 144 0
FLAG 848 144 0
FLAG 512 320 0
FLAG -464 32 OUT1
FLAG 912 32 OUT2
FLAG 400 608 0
FLAG -16 -256 IN1
FLAG 480 -256 IN2
FLAG 512 416 0
SYMBOL voltage -48 -240 R0
WINDOW 123 0 0 Left 2
WINDOW 39 0 0 Left 2
SYMATTR InstName V1
SYMATTR Value 24
SYMBOL ind -16 48 M270
WINDOW 0 32 56 VTop 2
WINDOW 3 5 56 VBottom 2
SYMATTR InstName L1
SYMATTR Value 1µ
SYMATTR Value2 Rser=10m
SYMBOL res -192 144 R0
SYMATTR InstName R1
SYMATTR Value 191K
SYMBOL cap -288 48 R0
WINDOW 3 29 62 Left 2
SYMATTR Value 4.7p
SYMATTR InstName C1
SYMBOL cap -416 48 R0
WINDOW 123 36 78 Left 2
WINDOW 3 31 53 Left 2
WINDOW 0 30 9 Left 2
SYMATTR Value2 m=2
SYMATTR Value 47µ
SYMATTR InstName C2
SYMATTR SpiceLine Rser=10m
SYMBOL cap 80 304 R90
WINDOW 0 0 32 VBottom 2
WINDOW 3 32 32 VTop 2
SYMATTR InstName C3
SYMATTR Value 470p
SYMBOL res 96 592 R90
WINDOW 0 0 56 VBottom 2
WINDOW 3 32 56 VTop 2
SYMATTR InstName R2
SYMATTR Value 15K
SYMBOL voltage 512 -240 R0
WINDOW 123 0 0 Left 2
WINDOW 39 0 0 Left 2
SYMATTR InstName V2
SYMATTR Value 24
SYMBOL ind 496 48 R270
WINDOW 0 32 56 VTop 2
WINDOW 3 5 56 VBottom 2
SYMATTR InstName L2
SYMATTR Value 1µ
SYMATTR Value2 Rser=10m
SYMBOL res 624 144 R0
SYMATTR InstName R3
SYMATTR Value 316K
SYMBOL cap 432 304 M90
WINDOW 0 0 32 VBottom 2
WINDOW 3 32 32 VTop 2
SYMATTR InstName C6
SYMATTR Value 470p
SYMBOL cap 432 400 M90
WINDOW 0 0 32 VBottom 2
WINDOW 3 32 32 VTop 2
SYMATTR InstName C7
SYMATTR Value 1µ
SYMBOL res -544 32 R0
SYMATTR InstName Rload1
SYMATTR Value 2
SYMBOL res 944 32 R0
SYMATTR InstName Rload2
SYMATTR Value 1
SYMBOL cap 0 -48 R0
SYMATTR InstName C8
SYMATTR Value 0.1µ
SYMBOL cap 416 -48 R0
SYMATTR InstName C9
SYMATTR Value 0.1µ
SYMBOL LT8650S 240 208 R0
SYMATTR InstName U1
SYMBOL res -192 32 R0
SYMATTR InstName R4
SYMATTR Value 1Meg
SYMBOL res 624 32 R0
SYMATTR InstName R5
SYMATTR Value 1Meg
SYMBOL cap 720 48 R0
WINDOW 3 29 62 Left 2
SYMATTR Value 4.7p
SYMATTR InstName C4
SYMBOL cap 832 48 R0
WINDOW 123 36 78 Left 2
WINDOW 3 31 53 Left 2
WINDOW 0 30 9 Left 2
SYMATTR Value2 m=2
SYMATTR Value 47µ
SYMATTR InstName C5
SYMATTR SpiceLine Rser=10m
TEXT 528 672 Left 2 !.tran .4m startup
