Version 4
SHEET 1 1528 696
WIRE -32 -176 -64 -176
WIRE 128 -176 -32 -176
WIRE 288 -176 128 -176
WIRE -64 -144 -64 -176
WIRE 464 -144 32 -144
WIRE 512 -144 464 -144
WIRE 512 -128 512 -144
WIRE 288 -112 288 -176
WIRE -64 -48 -64 -64
WIRE 128 -48 128 -176
WIRE 144 -48 128 -48
WIRE 464 -48 464 -144
WIRE 464 -48 432 -48
WIRE 512 -48 512 -64
WIRE 32 32 32 -144
WIRE 48 32 32 32
WIRE 144 32 128 32
WIRE 896 32 432 32
WIRE 64 128 32 128
WIRE 144 128 128 128
WIRE 480 128 432 128
WIRE 480 144 480 128
WIRE 48 224 32 224
WIRE 144 224 128 224
WIRE 480 224 480 208
WIRE 480 224 432 224
WIRE 560 224 480 224
WIRE 688 224 640 224
WIRE 896 224 896 32
WIRE 896 224 688 224
WIRE 960 224 896 224
WIRE 1008 224 960 224
WIRE 688 272 688 224
WIRE 800 272 688 272
WIRE 896 272 896 224
WIRE 1008 272 1008 224
WIRE 688 288 688 272
WIRE 800 288 800 272
WIRE 144 320 128 320
WIRE 528 320 432 320
WIRE 896 368 896 336
WIRE 1008 368 1008 352
WIRE 528 384 528 320
WIRE 688 384 688 368
WIRE 688 384 528 384
WIRE 800 384 800 352
WIRE 800 384 688 384
WIRE 480 416 432 416
WIRE 688 416 688 384
WIRE 480 432 480 416
WIRE 288 496 288 480
WIRE 688 512 688 496
WIRE 480 528 480 512
WIRE 480 608 480 592
FLAG 32 224 0
FLAG 32 128 0
FLAG -64 -48 0
FLAG 896 368 0
FLAG 688 512 0
FLAG 1008 368 0
FLAG 960 224 OUT
FLAG -32 -176 IN
FLAG 288 496 0
FLAG 480 608 0
FLAG 128 320 0
FLAG 512 -48 0
SYMBOL res 144 208 R90
WINDOW 0 0 56 VBottom 2
WINDOW 3 32 56 VTop 2
SYMATTR InstName R1
SYMATTR Value 38.3K
SYMBOL cap 128 112 R90
WINDOW 0 0 32 VBottom 2
WINDOW 3 32 32 VTop 2
SYMATTR InstName C1
SYMATTR Value 5n
SYMBOL voltage -64 -160 R0
SYMATTR InstName V1
SYMATTR Value 24
SYMBOL ind 544 240 R270
WINDOW 0 32 56 VTop 2
WINDOW 3 5 56 VBottom 2
SYMATTR InstName L1
SYMATTR Value 1µ
SYMATTR SpiceLine Rser=5m
SYMBOL res 672 272 R0
SYMATTR InstName R2
SYMATTR Value 100K
SYMBOL res 672 400 R0
SYMATTR InstName R3
SYMATTR Value 13.7K
SYMBOL cap 784 288 R0
SYMATTR InstName C5
SYMATTR Value 10p
SYMBOL res 992 256 R0
SYMATTR InstName Rload
SYMATTR Value 333m
SYMBOL cap 880 272 R0
WINDOW 3 27 53 Left 2
WINDOW 123 26 76 Left 2
SYMATTR Value 47µ
SYMATTR Value2 X2
SYMATTR SpiceLine Rser=6m
SYMATTR InstName C2
SYMBOL res 144 16 R90
WINDOW 0 0 56 VBottom 2
WINDOW 3 32 56 VTop 2
SYMATTR InstName R4
SYMATTR Value 100K
SYMBOL cap 464 144 R0
WINDOW 3 28 53 Left 2
SYMATTR Value 0.1µ
SYMATTR InstName C4
SYMBOL cap 496 -128 R0
SYMATTR InstName C6
SYMATTR Value 1µ
SYMBOL cap 464 528 R0
SYMATTR InstName C3
SYMATTR Value 330p
SYMBOL res 464 416 R0
SYMATTR InstName R5
SYMATTR Value 7.5K
SYMBOL LT8648S 288 192 R0
SYMATTR InstName U1
TEXT 176 584 Left 2 !.tran 4m startup
