Version 4
SHEET 1 1044 680
WIRE 80 0 0 0
WIRE 112 0 80 0
WIRE 464 0 400 0
WIRE 528 0 464 0
WIRE 608 0 592 0
WIRE 0 16 0 0
WIRE 464 16 464 0
WIRE 80 96 80 0
WIRE 112 96 80 96
WIRE 464 96 400 96
WIRE 0 112 0 96
WIRE 432 192 400 192
WIRE 432 208 432 192
WIRE 32 288 0 288
WIRE 112 288 96 288
WIRE 432 288 432 272
WIRE 432 288 400 288
WIRE 512 288 432 288
WIRE 624 288 592 288
WIRE 736 288 624 288
WIRE 832 288 736 288
WIRE 928 288 832 288
WIRE 624 304 624 288
WIRE 736 304 736 288
WIRE 832 304 832 288
WIRE 928 304 928 288
WIRE 16 384 0 384
WIRE 112 384 96 384
WIRE 624 384 400 384
WIRE 736 384 736 368
WIRE 736 384 624 384
WIRE 624 400 624 384
WIRE 832 400 832 368
WIRE 928 400 928 384
WIRE 256 448 256 432
WIRE 624 496 624 480
FLAG 0 384 0
FLAG 0 288 0
FLAG 0 112 0
FLAG 608 0 0
FLAG 832 400 0
FLAG 624 496 0
FLAG 928 400 0
FLAG 928 288 OUT
FLAG 0 0 IN
FLAG 256 448 0
SYMBOL res 112 368 R90
WINDOW 0 0 56 VBottom 2
WINDOW 3 32 56 VTop 2
SYMATTR InstName R1
SYMATTR Value 18.2K
SYMBOL cap 96 272 R90
WINDOW 0 0 32 VBottom 2
WINDOW 3 32 32 VTop 2
SYMATTR InstName C1
SYMATTR Value 1n
SYMBOL voltage 0 0 R0
WINDOW 123 0 0 Left 0
WINDOW 39 0 0 Left 0
SYMATTR InstName V1
SYMATTR Value 12
SYMBOL cap 528 16 R270
WINDOW 0 32 32 VTop 2
WINDOW 3 0 32 VBottom 2
SYMATTR InstName C2
SYMATTR Value 1µ
SYMBOL ind 496 304 R270
WINDOW 0 32 56 VTop 2
WINDOW 3 5 56 VBottom 2
SYMATTR InstName L1
SYMATTR Value 2.2µ
SYMATTR SpiceLine Rser=37m Rpar=5k
SYMBOL cap 816 304 R0
SYMATTR InstName C4
SYMATTR Value 22µ
SYMATTR SpiceLine V=6.3 Irms=0 Rser=0.002 Lser=0 mfg="TDK" pn="C4532X5ROJ47@M" type="X5R"
SYMBOL res 608 288 R0
SYMATTR InstName R2
SYMATTR Value 1Meg
SYMBOL res 608 384 R0
SYMATTR InstName R3
SYMATTR Value 309K
SYMBOL cap 720 304 R0
SYMATTR InstName C5
SYMATTR Value 10p
SYMBOL res 912 288 R0
SYMATTR InstName Rload
SYMATTR Value 2.2
SYMBOL res 448 0 R0
SYMATTR InstName R4
SYMATTR Value 100K
SYMBOL LT8615 256 160 R0
SYMATTR InstName U1
SYMBOL cap 416 208 R0
SYMATTR InstName C3
SYMATTR Value 0.1µ
TEXT 480 584 Left 2 !.tran 750u startup
