Version 4
SHEET 1 1752 1056
WIRE -144 -272 -192 -272
WIRE -80 -272 -144 -272
WIRE -48 -272 -80 -272
WIRE -192 -256 -192 -272
WIRE -192 -160 -192 -176
WIRE -80 -160 -80 -272
WIRE -48 -160 -80 -160
WIRE 496 -160 464 -160
WIRE 624 -160 576 -160
WIRE 704 -160 624 -160
WIRE 832 -160 704 -160
WIRE 928 -160 832 -160
WIRE 624 -144 624 -160
WIRE 704 -144 704 -160
WIRE 832 -144 832 -160
WIRE 928 -144 928 -160
WIRE -80 -48 -80 -160
WIRE -48 -48 -80 -48
WIRE 624 -48 624 -80
WIRE 624 -48 464 -48
WIRE 704 -48 704 -64
WIRE 704 -48 624 -48
WIRE 832 -48 832 -80
WIRE 928 -48 928 -64
WIRE 704 -32 704 -48
WIRE -128 64 -192 64
WIRE -80 64 -128 64
WIRE -48 64 -80 64
WIRE 704 64 704 48
WIRE -192 80 -192 64
WIRE 496 96 464 96
WIRE 624 96 576 96
WIRE 704 96 624 96
WIRE 832 96 704 96
WIRE 928 96 832 96
WIRE 624 112 624 96
WIRE 704 112 704 96
WIRE 832 112 832 96
WIRE 928 112 928 96
WIRE -192 176 -192 160
WIRE -80 176 -80 64
WIRE -48 176 -80 176
WIRE 624 208 624 176
WIRE 624 208 464 208
WIRE 704 208 704 192
WIRE 704 208 624 208
WIRE 832 208 832 176
WIRE 928 208 928 192
WIRE 704 224 704 208
WIRE -80 288 -80 176
WIRE -48 288 -80 288
WIRE 704 320 704 304
WIRE 496 352 464 352
WIRE 624 352 576 352
WIRE 704 352 624 352
WIRE 832 352 704 352
WIRE 928 352 832 352
WIRE 624 368 624 352
WIRE 704 368 704 352
WIRE 832 368 832 352
WIRE 928 368 928 352
WIRE -80 400 -80 288
WIRE -48 400 -80 400
WIRE 624 464 624 432
WIRE 624 464 464 464
WIRE 704 464 704 448
WIRE 704 464 624 464
WIRE 832 464 832 432
WIRE 928 464 928 448
WIRE 704 480 704 464
WIRE -48 512 -192 512
WIRE -192 528 -192 512
WIRE 704 576 704 560
WIRE 496 608 464 608
WIRE 624 608 576 608
WIRE 704 608 624 608
WIRE 832 608 704 608
WIRE 928 608 832 608
WIRE -192 624 -192 592
WIRE -160 624 -192 624
WIRE -48 624 -80 624
WIRE 624 624 624 608
WIRE 704 624 704 608
WIRE 832 624 832 608
WIRE 928 624 928 608
WIRE -192 656 -192 624
WIRE 624 720 624 688
WIRE 624 720 464 720
WIRE 704 720 704 704
WIRE 704 720 624 720
WIRE 832 720 832 688
WIRE 928 720 928 704
WIRE -48 736 -80 736
WIRE 704 736 704 720
WIRE 704 832 704 816
WIRE 208 848 208 832
FLAG 208 848 0
FLAG 832 -160 OUT1
FLAG -192 -160 0
FLAG -144 -272 IN_HV
FLAG 704 64 0
FLAG 832 -48 0
FLAG 928 208 0
FLAG 832 96 OUT2
FLAG 704 320 0
FLAG 832 208 0
FLAG 832 352 OUT3
FLAG 704 576 0
FLAG 832 464 0
FLAG 928 720 0
FLAG 832 608 OUT4
FLAG 704 832 0
FLAG 832 720 0
FLAG -192 656 0
FLAG 928 464 0
FLAG -192 176 0
FLAG -128 64 IN_LV
FLAG 928 -48 0
FLAG -80 736 0
SYMBOL ind 480 -144 R270
WINDOW 0 32 56 VTop 2
WINDOW 3 5 56 VBottom 2
SYMATTR InstName L1
SYMATTR Value 1.25µ
SYMBOL res 688 -160 R0
SYMATTR InstName R11
SYMATTR Value 1Meg
SYMBOL res 688 -48 R0
SYMATTR InstName R12
SYMATTR Value 191K
SYMBOL cap 608 -144 R0
SYMATTR InstName C11
SYMATTR Value 4.7p
SYMBOL cap 816 -144 R0
SYMATTR InstName C12
SYMATTR Value 47µ
SYMBOL voltage -192 -272 R0
WINDOW 123 0 0 Left 0
WINDOW 39 0 0 Left 0
WINDOW 3 34 90 Left 2
WINDOW 0 38 28 Left 2
SYMATTR Value 12
SYMATTR InstName V1
SYMBOL ind 480 112 R270
WINDOW 0 32 56 VTop 2
WINDOW 3 5 56 VBottom 2
SYMATTR InstName L2
SYMATTR Value 1.5µ
SYMBOL res 688 96 R0
SYMATTR InstName R2
SYMATTR Value 1Meg
SYMBOL res 688 208 R0
SYMATTR InstName R3
SYMATTR Value 316K
SYMBOL cap 608 112 R0
SYMATTR InstName C4
SYMATTR Value 4.7p
SYMBOL cap 816 112 R0
SYMATTR InstName C5
SYMATTR Value 47µ
SYMBOL res 912 96 R0
SYMATTR InstName Rload2
SYMATTR Value 6.65
SYMBOL ind 480 368 R270
WINDOW 0 32 56 VTop 2
WINDOW 3 5 56 VBottom 2
SYMATTR InstName L3
SYMATTR Value 1µ
SYMBOL res 688 352 R0
SYMATTR InstName R5
SYMATTR Value 1Meg
SYMBOL res 688 464 R0
SYMATTR InstName R6
SYMATTR Value 806K
SYMBOL res 912 352 R0
SYMATTR InstName Rload3
SYMATTR Value 3.61
SYMBOL ind 480 624 R270
WINDOW 0 32 56 VTop 2
WINDOW 3 5 56 VBottom 2
SYMATTR InstName L4
SYMATTR Value 0.68µ
SYMBOL res 688 608 R0
SYMATTR InstName R7
SYMATTR Value 499K
SYMBOL res 688 720 R0
SYMATTR InstName R8
SYMATTR Value 1Meg
SYMBOL res 912 608 R0
SYMATTR InstName Rload4
SYMATTR Value 1.2
SYMBOL res -64 608 R90
WINDOW 0 0 56 VBottom 2
WINDOW 3 32 56 VTop 2
SYMATTR InstName R1
SYMATTR Value 100K
SYMBOL cap -208 528 R0
WINDOW 0 40 11 Left 2
WINDOW 3 40 35 Left 2
SYMATTR InstName C3
SYMATTR Value 1µ
SYMBOL voltage -192 64 R0
WINDOW 123 0 0 Left 0
WINDOW 39 0 0 Left 0
SYMATTR InstName V2
SYMATTR Value 5
SYMBOL res 912 -160 R0
SYMATTR InstName Rload1
SYMATTR Value 5
SYMBOL cap 816 368 R0
SYMATTR InstName C1
SYMATTR Value 47µ
SYMBOL cap 816 624 R0
SYMATTR InstName C2
SYMATTR Value 220µ
SYMBOL cap 608 368 R0
SYMATTR InstName C6
SYMATTR Value 4.7p
SYMBOL cap 608 624 R0
SYMATTR InstName C7
SYMATTR Value 4.7p
SYMBOL LT8692S 208 240 R0
SYMATTR InstName U2
TEXT 120 896 Left 2 !.tran 1.5m startup
