Version 4
SHEET 1 1224 1040
WIRE 384 -416 -96 -416
WIRE 720 -416 384 -416
WIRE -192 -384 -224 -384
WIRE -32 -384 -192 -384
WIRE 96 -384 -32 -384
WIRE 192 -384 96 -384
WIRE 288 -384 192 -384
WIRE -224 -352 -224 -384
WIRE 96 -352 96 -384
WIRE 192 -352 192 -384
WIRE 288 -352 288 -384
WIRE 384 -352 384 -416
WIRE -32 -288 -32 -384
WIRE 0 -288 -32 -288
WIRE 512 -288 464 -288
WIRE 512 -272 512 -288
WIRE -224 -240 -224 -272
WIRE 0 -192 -32 -192
WIRE 512 -192 512 -208
WIRE 512 -192 464 -192
WIRE 592 -192 512 -192
WIRE 800 -192 672 -192
WIRE 912 -192 800 -192
WIRE 1008 -192 912 -192
WIRE 1056 -192 1008 -192
WIRE 1104 -192 1056 -192
WIRE 800 -176 800 -192
WIRE 912 -176 912 -192
WIRE 1008 -176 1008 -192
WIRE 1104 -176 1104 -192
WIRE 512 -96 464 -96
WIRE 512 -80 512 -96
WIRE 800 -80 800 -96
WIRE 800 -80 512 -80
WIRE 912 -80 912 -112
WIRE 912 -80 800 -80
WIRE 800 -64 800 -80
WIRE 1008 -64 1008 -112
WIRE 1104 -64 1104 -96
WIRE -96 -16 -96 -416
WIRE 512 0 464 0
WIRE 512 16 512 0
WIRE 800 32 800 16
WIRE -96 96 -96 64
WIRE 0 96 -96 96
WIRE 512 96 512 80
WIRE 512 96 464 96
WIRE 592 96 512 96
WIRE 720 96 720 -416
WIRE 720 96 672 96
WIRE 800 96 720 96
WIRE 912 96 800 96
WIRE 1008 96 912 96
WIRE 1056 96 1008 96
WIRE 1104 96 1056 96
WIRE 800 112 800 96
WIRE 912 112 912 96
WIRE 1008 112 1008 96
WIRE 1104 112 1104 96
WIRE 512 192 464 192
WIRE 512 208 512 192
WIRE 800 208 800 192
WIRE 800 208 512 208
WIRE 912 208 912 176
WIRE 912 208 800 208
WIRE 1008 208 1008 176
WIRE 1104 208 1104 192
WIRE 800 224 800 208
WIRE 720 240 720 96
WIRE 720 240 512 240
WIRE 512 288 512 240
WIRE 512 288 464 288
WIRE 544 288 512 288
WIRE 624 288 608 288
WIRE 800 320 800 304
WIRE -96 384 -96 96
WIRE 0 384 -96 384
WIRE 512 384 512 288
WIRE 512 384 464 384
WIRE 544 384 512 384
WIRE 624 384 608 384
WIRE -96 480 -96 384
WIRE 0 480 -96 480
WIRE 592 480 464 480
WIRE 720 480 672 480
WIRE 800 480 720 480
WIRE 1008 480 800 480
WIRE 1056 480 1008 480
WIRE 1104 480 1056 480
WIRE 720 496 720 480
WIRE 1008 496 1008 480
WIRE 1104 496 1104 480
WIRE -80 576 -96 576
WIRE 0 576 -16 576
WIRE 720 576 720 560
WIRE 720 576 464 576
WIRE 800 576 800 560
WIRE 800 576 720 576
WIRE 880 576 800 576
WIRE 1008 576 1008 560
WIRE 1008 576 960 576
WIRE 1104 576 1008 576
WIRE 1104 608 1104 576
WIRE 592 672 464 672
WIRE 720 672 672 672
WIRE 800 672 720 672
WIRE 1008 672 800 672
WIRE 1056 672 1008 672
WIRE 1104 672 1056 672
WIRE 720 688 720 672
WIRE 1008 688 1008 672
WIRE 1104 688 1104 672
WIRE 0 768 -32 768
WIRE 720 768 720 752
WIRE 720 768 464 768
WIRE 800 768 800 752
WIRE 800 768 720 768
WIRE 880 768 800 768
WIRE 1008 768 1008 752
WIRE 1008 768 960 768
WIRE 1104 768 1008 768
WIRE 1104 800 1104 768
WIRE 96 848 96 832
WIRE 192 848 192 832
WIRE 288 848 288 832
WIRE 368 848 368 832
WIRE 96 944 96 928
WIRE 192 944 192 912
WIRE 288 944 288 912
FLAG 368 848 0
FLAG 96 944 0
FLAG 192 944 0
FLAG 288 944 0
FLAG -32 768 0
FLAG -96 576 0
FLAG 1104 800 0
FLAG 1056 672 OUT4
FLAG 1104 608 0
FLAG 1056 480 OUT3
FLAG 1104 208 0
FLAG 1056 96 OUT2
FLAG 1104 -64 0
FLAG 1056 -192 OUT1
FLAG 624 288 0
FLAG -224 -240 0
FLAG -32 -192 0
FLAG -192 -384 IN
FLAG 624 384 0
FLAG 1008 -64 0
FLAG 800 32 0
FLAG 1008 208 0
FLAG 800 320 0
SYMBOL res 80 832 R0
SYMATTR InstName R1
SYMATTR Value 60.4K
SYMBOL cap 176 848 R0
SYMATTR InstName C1
SYMATTR Value 1n
SYMBOL cap 272 848 R0
SYMATTR InstName C2
SYMATTR Value 1n
SYMBOL cap -16 560 R90
WINDOW 0 0 32 VBottom 2
WINDOW 3 32 32 VTop 2
SYMATTR InstName C3
SYMATTR Value 4.7µ
SYMBOL ind 576 688 R270
WINDOW 0 32 56 VTop 2
WINDOW 3 5 56 VBottom 2
SYMATTR InstName L4
SYMATTR Value 1.8µ
SYMATTR SpiceLine Rser=10m
SYMBOL res 784 656 R0
SYMATTR InstName R8
SYMATTR Value 100K
SYMBOL res 864 784 R270
WINDOW 0 32 56 VTop 2
WINDOW 3 0 56 VBottom 2
SYMATTR InstName R9
SYMATTR Value 200K
SYMBOL cap 704 688 R0
SYMATTR InstName C10
SYMATTR Value 22p
SYMBOL cap 992 688 R0
SYMATTR InstName C11
SYMATTR Value 47µ
SYMATTR SpiceLine Rser=5m
SYMBOL res 1088 672 R0
SYMATTR InstName Rload4
SYMATTR Value 0.667
SYMBOL ind 576 496 R270
WINDOW 0 32 56 VTop 2
WINDOW 3 5 56 VBottom 2
SYMATTR InstName L3
SYMATTR Value 2.2µ
SYMATTR SpiceLine Rser=10m
SYMBOL res 784 464 R0
SYMATTR InstName R6
SYMATTR Value 249K
SYMBOL res 864 592 R270
WINDOW 0 32 56 VTop 2
WINDOW 3 0 56 VBottom 2
SYMATTR InstName R7
SYMATTR Value 200K
SYMBOL cap 704 496 R0
SYMATTR InstName C8
SYMATTR Value 10p
SYMBOL cap 992 496 R0
SYMATTR InstName C9
SYMATTR Value 22µ
SYMATTR SpiceLine Rser=5m
SYMBOL res 1088 480 R0
SYMATTR InstName Rload3
SYMATTR Value 1
SYMBOL ind 576 112 R270
WINDOW 0 32 56 VTop 2
WINDOW 3 5 56 VBottom 2
SYMATTR InstName L2
SYMATTR Value 2.2µ
SYMATTR SpiceLine Rser=10m
SYMBOL res 784 96 R0
SYMATTR InstName R4
SYMATTR Value 316K
SYMBOL res 784 208 R0
SYMATTR InstName R5
SYMATTR Value 137K
SYMBOL cap 896 112 R0
SYMATTR InstName C6
SYMATTR Value 22p
SYMBOL cap 992 112 R0
SYMATTR InstName C7
SYMATTR Value 47µ
SYMATTR SpiceLine Rser=5m
SYMBOL res 1088 96 R0
SYMATTR InstName Rload2
SYMATTR Value 4.125
SYMBOL cap 496 16 R0
SYMATTR InstName C13
SYMATTR Value 0.1µ
SYMBOL ind 576 -176 R270
WINDOW 0 32 56 VTop 2
WINDOW 3 5 56 VBottom 2
SYMATTR InstName L1
SYMATTR Value 6.2µ
SYMATTR SpiceLine Rser=10m
SYMBOL res 784 -192 R0
SYMATTR InstName R2
SYMATTR Value 453K
SYMBOL res 784 -80 R0
SYMATTR InstName R3
SYMATTR Value 113K
SYMBOL cap 896 -176 R0
SYMATTR InstName C4
SYMATTR Value 4.7p
SYMBOL cap 992 -176 R0
SYMATTR InstName C5
SYMATTR Value 22µ
SYMATTR SpiceLine Rser=5m
SYMBOL res 1088 -192 R0
SYMATTR InstName Rload1
SYMATTR Value 3.33
SYMBOL cap 496 -272 R0
SYMATTR InstName C12
SYMATTR Value 0.1µ
SYMBOL cap 544 304 R270
WINDOW 0 32 32 VTop 2
WINDOW 3 0 32 VBottom 2
SYMATTR InstName C14
SYMATTR Value 4.7µ
SYMATTR SpiceLine Rser=5m
SYMBOL voltage -224 -368 R0
SYMATTR InstName V1
SYMATTR Value 24
SYMBOL res -112 -32 R0
SYMATTR InstName R10
SYMATTR Value 100K
SYMBOL LT8602 240 240 R0
SYMATTR InstName U1
SYMBOL cap 544 400 R270
WINDOW 0 32 32 VTop 2
WINDOW 3 0 32 VBottom 2
SYMATTR InstName C15
SYMATTR Value 4.7µ
SYMATTR SpiceLine Rser=5m
TEXT 160 1024 Left 2 !.tran 2.5m
