Version 4
SHEET 1 1080 680
WIRE 96 -128 -64 -128
WIRE 272 -128 96 -128
WIRE -64 -112 -64 -128
WIRE 272 -112 272 -128
WIRE 96 -64 96 -128
WIRE 128 -64 96 -64
WIRE -64 -16 -64 -32
WIRE 96 32 96 -64
WIRE 128 32 96 32
WIRE 448 32 416 32
WIRE 512 32 448 32
WIRE 688 32 592 32
WIRE -32 128 -64 128
WIRE 128 128 48 128
WIRE 448 128 416 128
WIRE 512 128 448 128
WIRE 688 128 688 32
WIRE 688 128 592 128
WIRE 768 128 688 128
WIRE 880 128 768 128
WIRE 976 128 880 128
WIRE 976 144 976 128
WIRE 880 160 880 128
WIRE 768 176 768 128
WIRE -80 224 -96 224
WIRE 16 224 -16 224
WIRE 128 224 96 224
WIRE 688 224 688 128
WIRE 688 224 416 224
WIRE 880 240 880 224
WIRE 976 240 976 224
WIRE 128 320 96 320
WIRE 464 320 416 320
WIRE 768 320 768 256
WIRE 768 320 464 320
WIRE 768 336 768 320
WIRE 96 416 96 320
WIRE 128 416 96 416
WIRE 448 416 416 416
WIRE 592 416 448 416
WIRE 672 416 592 416
WIRE 672 432 672 416
WIRE 768 432 768 416
WIRE 592 448 592 416
WIRE 96 512 96 416
WIRE 128 512 96 512
WIRE 448 512 416 512
WIRE 592 528 592 512
WIRE 672 528 672 512
WIRE 272 592 272 576
FLAG -64 -16 0
FLAG -64 128 0
FLAG 272 592 0
FLAG 768 432 0
FLAG 976 240 0
FLAG -96 224 0
FLAG 976 128 OUT
FLAG -64 -128 IN
FLAG 672 528 0
FLAG 592 528 0
FLAG 880 240 0
FLAG 448 512 CLKout
FLAG 448 32 PG
FLAG 448 128 SW
FLAG 464 320 PGFB
FLAG 448 416 SET
SYMBOL voltage -64 -128 R0
SYMATTR InstName V1
SYMATTR Value 12
SYMBOL res 64 112 R90
WINDOW 0 0 56 VBottom 2
WINDOW 3 32 56 VTop 2
SYMATTR InstName R1
SYMATTR Value 47k
SYMBOL ind 496 144 R270
WINDOW 0 32 56 VTop 2
WINDOW 3 5 56 VBottom 2
SYMATTR InstName L1
SYMATTR Value 1µ
SYMATTR SpiceLine Rser=6m
SYMBOL res 752 320 R0
SYMATTR InstName R2
SYMATTR Value 49.9k
SYMBOL res 960 128 R0
SYMATTR InstName Rload
SYMATTR Value 1.6
SYMBOL res 752 160 R0
SYMATTR InstName R3
SYMATTR Value 280k
SYMBOL cap -16 208 R90
WINDOW 0 0 32 VBottom 2
WINDOW 3 32 32 VTop 2
SYMATTR InstName C3
SYMATTR Value 2n
SYMBOL res 0 240 R270
WINDOW 0 32 56 VTop 2
WINDOW 3 0 56 VBottom 2
SYMATTR InstName R4
SYMATTR Value 500
SYMBOL res 656 416 R0
SYMATTR InstName R5
SYMATTR Value 33.2k
SYMBOL cap 576 448 R0
SYMATTR InstName C1
SYMATTR Value 1µ
SYMBOL cap 864 160 R0
SYMATTR InstName C2
SYMATTR Value 120µ
SYMATTR SpiceLine Rser=5m
SYMBOL res 608 16 R90
WINDOW 0 0 56 VBottom 2
WINDOW 3 32 56 VTop 2
SYMATTR InstName R6
SYMATTR Value 100k
SYMBOL LT8622S 272 192 R0
SYMATTR InstName U1
TEXT 728 552 Left 2 !.tran 1.5m startup
TEXT 48 104 Left 2 ;2MHz
