Version 4
SHEET 1 880 680
WIRE 32 64 -96 64
WIRE 480 64 384 64
WIRE -96 112 -96 64
WIRE 480 112 480 64
WIRE -96 240 -96 192
WIRE 288 336 288 304
WIRE 480 336 480 192
WIRE 480 336 288 336
WIRE 128 352 128 304
WIRE 128 352 80 352
WIRE 288 368 288 336
WIRE 128 400 128 352
WIRE 128 560 128 480
FLAG 288 368 0
FLAG 128 560 0
FLAG -96 240 0
FLAG -96 64 IN
FLAG 80 352 OUT
SYMBOL current 480 112 R0
WINDOW 3 24 136 Left 2
WINDOW 123 0 0 Left 0
WINDOW 39 24 108 Left 2
SYMATTR Value 150
SYMATTR SpiceLine load
SYMATTR InstName I1
SYMBOL res 112 384 R0
SYMATTR InstName R1
SYMATTR Value 200
SYMBOL voltage -96 96 R0
WINDOW 123 0 0 Left 0
WINDOW 39 0 0 Left 0
SYMATTR InstName V1
SYMATTR Value 12
SYMBOL LT9890 208 160 R0
SYMATTR InstName U1
TEXT -128 584 Left 2 !.tran 0 1m 0 startup
