Version 4
SHEET 1 1056 680
WIRE 128 48 64 48
WIRE 288 48 208 48
WIRE 0 176 -416 176
WIRE 64 176 64 48
WIRE 64 176 0 176
WIRE 80 176 64 176
WIRE 288 176 288 48
WIRE 288 176 272 176
WIRE 336 176 288 176
WIRE -416 192 -416 176
WIRE 80 240 64 240
WIRE 304 240 272 240
WIRE 384 240 304 240
WIRE 448 240 384 240
WIRE 576 240 528 240
WIRE 384 256 384 240
WIRE 576 256 576 240
WIRE -416 288 -416 272
WIRE 0 320 -224 320
WIRE 80 320 0 320
WIRE 304 320 272 320
WIRE -224 336 -224 320
WIRE 304 336 304 320
WIRE 384 352 384 336
WIRE 576 352 576 336
WIRE -224 432 -224 416
WIRE 304 432 304 416
FLAG 64 240 0
FLAG 384 352 0
FLAG -224 432 0
FLAG 304 432 0
FLAG 576 352 0
FLAG -416 288 0
FLAG 0 176 V1
FLAG 0 320 V2
FLAG 304 320 V3
FLAG 304 240 V4
FLAG 336 176 _RST
SYMBOL LTC2903-A1 176 240 R0
SYMATTR InstName U1
SYMBOL voltage -416 176 R0
WINDOW 123 0 0 Left 2
WINDOW 39 0 0 Left 2
SYMATTR Value PULSE(0 3.3 0 100n 100n 250m 500m)
SYMATTR InstName V1
SYMBOL voltage -224 320 R0
WINDOW 123 0 0 Left 2
WINDOW 39 0 0 Left 2
SYMATTR InstName V2
SYMATTR Value PULSE(0 2.5 0 100n 100n 250m 500m)
SYMBOL voltage 304 320 R0
WINDOW 123 0 0 Left 2
WINDOW 39 0 0 Left 2
WINDOW 3 8 98 Left 2
SYMATTR Value PULSE(0 1.8 0 100n 100n 250m 500m)
SYMATTR InstName V3
SYMBOL voltage 576 240 R0
WINDOW 123 0 0 Left 2
WINDOW 39 0 0 Left 2
SYMATTR InstName V4
SYMATTR Value PULSE(0 1.2 0 100n 100n 250m 500m)
SYMBOL res 368 352 M180
WINDOW 0 36 76 Left 2
WINDOW 3 36 40 Left 2
SYMATTR InstName R3
SYMATTR Value 10K
SYMBOL res 432 256 R270
WINDOW 0 32 56 VTop 2
WINDOW 3 0 56 VBottom 2
SYMATTR InstName R2
SYMATTR Value 12.4K
SYMBOL res 224 32 R90
WINDOW 0 0 56 VBottom 2
WINDOW 3 32 56 VTop 2
SYMATTR InstName R1
SYMATTR Value 10K
TEXT 496 480 Left 2 !.tran 1
