Version 4
SHEET 1 4472 1028
WIRE -2784 -480 -2800 -480
WIRE -2624 -480 -2704 -480
WIRE -2560 -480 -2624 -480
WIRE -2448 -480 -2480 -480
WIRE -2592 -352 -2592 -368
WIRE -2624 -336 -2624 -480
WIRE -2608 -336 -2624 -336
WIRE -2448 -320 -2448 -480
WIRE -2448 -320 -2544 -320
WIRE -2400 -320 -2448 -320
WIRE -2784 -304 -2960 -304
WIRE -2720 -304 -2784 -304
WIRE -2608 -304 -2640 -304
WIRE -2784 -272 -2784 -304
WIRE -3168 -256 -3168 -272
WIRE -2960 -256 -2960 -304
WIRE -2592 -256 -2592 -288
WIRE -2560 -240 -2560 -288
WIRE -3168 -144 -3168 -176
WIRE -2960 -144 -2960 -176
WIRE -2784 -144 -2784 -192
WIRE -2560 -144 -2560 -160
FLAG -3168 -144 0
FLAG -3168 -272 +V
FLAG -2592 -368 +V
FLAG -2400 -320 OUT
FLAG -2592 -256 0
FLAG -2800 -480 0
FLAG -2784 -144 0
FLAG -2960 -144 0
FLAG -2560 -144 0
SYMBOL voltage -3168 -272 R0
SYMATTR InstName V1
SYMATTR Value 1.8
SYMBOL res -2464 -496 R90
WINDOW 0 0 56 VBottom 2
WINDOW 3 32 56 VTop 2
SYMATTR InstName R2
SYMATTR Value 10Meg
SYMBOL res -2688 -496 R90
WINDOW 0 0 56 VBottom 2
WINDOW 3 32 56 VTop 2
SYMATTR InstName R1
SYMATTR Value 100K
SYMBOL res -2624 -320 R90
WINDOW 0 0 56 VBottom 2
WINDOW 3 32 56 VTop 2
SYMATTR InstName R3
SYMATTR Value 100K
SYMBOL res -2800 -288 R0
SYMATTR InstName R4
SYMATTR Value 100
SYMBOL current -2960 -176 M180
WINDOW 0 24 80 Left 2
WINDOW 3 24 0 Left 2
SYMATTR InstName I1
SYMATTR Value 100µ
SYMBOL voltage -2560 -256 R0
WINDOW 123 0 0 Left 2
WINDOW 39 0 0 Left 2
WINDOW 3 29 92 Left 2
SYMATTR Value PULSE(0 1.8 42m 10n 10n 8m 100m)
SYMATTR InstName V2
SYMBOL LTC2065 -2576 -320 R0
SYMATTR InstName U1
TEXT -2536 -136 Left 2 !.tran 400m
TEXT -2960 -352 Center 2 ;Oxygen\nSensor
CIRCLE Normal -2832 -112 -3072 -400 2
