Version 4
SHEET 1 1572 852
WIRE -288 -208 -976 -208
WIRE -528 -192 -832 -192
WIRE -528 -176 -528 -192
WIRE -288 -176 -288 -208
WIRE 480 -144 256 -144
WIRE 576 -144 480 -144
WIRE 656 -144 576 -144
WIRE 256 -128 256 -144
WIRE 656 -128 656 -144
WIRE -528 -80 -528 -96
WIRE 128 -80 -528 -80
WIRE -528 -64 -528 -80
WIRE 416 -64 384 -64
WIRE 480 -64 480 -144
WIRE 656 -32 656 -48
WIRE -528 32 -528 16
WIRE 128 32 -528 32
WIRE -528 48 -528 32
WIRE 480 48 480 16
WIRE 480 48 384 48
WIRE -288 64 -288 -96
WIRE 128 64 -288 64
WIRE -288 80 -288 64
WIRE 576 80 576 -144
WIRE -832 112 -832 -192
WIRE -528 144 -528 128
WIRE -288 176 -288 160
WIRE 128 176 -288 176
WIRE -288 192 -288 176
WIRE -832 208 -832 192
WIRE 16 208 -160 208
WIRE 128 208 16 208
WIRE 576 208 576 160
WIRE 576 208 384 208
WIRE -976 224 -976 -208
WIRE 128 240 -64 240
WIRE -160 256 -160 208
WIRE 16 256 16 208
WIRE -288 288 -288 272
WIRE -976 320 -976 304
WIRE 128 352 -32 352
WIRE -160 368 -160 336
WIRE -64 368 -64 240
WIRE -64 368 -160 368
WIRE 464 368 384 368
WIRE 16 384 16 336
WIRE 128 384 16 384
WIRE 464 384 464 368
WIRE -160 400 -160 368
WIRE 16 400 16 384
WIRE 464 480 464 464
WIRE -160 496 -160 480
WIRE -32 496 -32 352
WIRE -32 496 -160 496
WIRE 16 496 16 480
WIRE 128 496 16 496
WIRE 16 512 16 496
WIRE -160 528 -160 496
WIRE 208 560 208 544
WIRE 304 560 304 544
WIRE 16 608 16 592
WIRE 304 640 304 624
WIRE -160 672 -160 608
WIRE 16 704 16 688
WIRE -160 768 -160 752
FLAG -528 144 0
FLAG -288 288 0
FLAG 656 -32 0
FLAG -976 320 0
FLAG -832 208 0
FLAG -160 768 0
FLAG 16 704 0
FLAG 208 560 0
FLAG 304 640 0
FLAG 416 -64 0
FLAG 464 480 0
SYMBOL res -544 -192 R0
SYMATTR InstName R12
SYMATTR Value 44.2K
SYMBOL res -544 -80 R0
SYMATTR InstName R10
SYMATTR Value 1K
SYMBOL res -544 32 R0
SYMATTR InstName R11
SYMATTR Value 4.53K
SYMBOL res -304 -192 R0
SYMATTR InstName R9
SYMATTR Value 27.4K
SYMBOL res -304 64 R0
SYMATTR InstName R7
SYMATTR Value 1K
SYMBOL res -304 176 R0
SYMATTR InstName R8
SYMATTR Value 4.53K
SYMBOL res -176 240 R0
SYMATTR InstName R4
SYMATTR Value 4.64K
SYMBOL res -176 384 R0
SYMATTR InstName R5
SYMATTR Value 845
SYMBOL res -176 512 R0
SYMATTR InstName R6
SYMATTR Value 54.9K
SYMBOL res 0 240 R0
SYMATTR InstName R1
SYMATTR Value 4.64K
SYMBOL res 0 384 R0
SYMATTR InstName R2
SYMATTR Value 768
SYMBOL res 0 496 R0
SYMATTR InstName R3
SYMATTR Value 37.4K
SYMBOL res 464 -80 R0
SYMATTR InstName R13
SYMATTR Value 10K
SYMBOL res 560 64 R0
SYMATTR InstName R14
SYMATTR Value 10K
SYMBOL cap 288 560 R0
SYMATTR InstName C1
SYMATTR Value .01µ
SYMBOL voltage -832 96 R0
WINDOW 123 24 146 Left 2
WINDOW 39 24 125 Left 2
SYMATTR InstName V1
SYMATTR Value PWL(0 0 5 5 6 5 7 6 8 6 10 4 11 4 12 5)
SYMBOL voltage -976 208 R0
WINDOW 123 24 146 Left 2
WINDOW 39 24 125 Left 2
SYMATTR InstName V2
SYMATTR Value PWL(0 0 3.3 3.3 13 3.3 14 4.3 15 4.3 17 2.3 18 2.3 19 3.3)
SYMBOL voltage -160 656 R0
WINDOW 123 24 146 Left 2
WINDOW 39 24 125 Left 2
SYMATTR Value PWL(0 0 5 -5 20 -5 21 -6 22 -6 24 -4 25 -4 26 -5)
SYMATTR InstName V3
SYMBOL voltage 16 592 R0
WINDOW 123 24 146 Left 2
WINDOW 39 24 125 Left 2
SYMATTR Value PWL(0 0 3.3 -3.3 27 -3.3 28 -4.3 29 -4.3 31 -2.3 32 -2.3 33 -3.3)
SYMATTR InstName V4
SYMBOL voltage 656 -144 R0
WINDOW 123 24 146 Left 2
WINDOW 39 24 125 Left 2
SYMATTR InstName V5
SYMATTR Value PWL(0 0 3.3 3.3 34 3.3 37.3 0 38.3 0 41.6 3.3)
SYMBOL voltage 464 368 R0
WINDOW 123 24 146 Left 2
WINDOW 39 24 125 Left 2
SYMATTR InstName V6
SYMATTR Value PULSE(0 3.3 28.5 1p 1p .1)
SYMBOL PowerProducts\\LTC2914-2 256 208 R0
SYMATTR InstName U1
TEXT 896 608 Left 2 !.tran 45
