Version 4
SHEET 1 880 972
WIRE -368 112 -416 112
WIRE 80 112 -288 112
WIRE 112 112 80 112
WIRE 432 112 368 112
WIRE 480 112 432 112
WIRE 576 112 560 112
WIRE -192 192 -224 192
WIRE 80 192 -112 192
WIRE 112 192 80 192
WIRE 512 192 368 192
WIRE 624 192 512 192
WIRE -704 272 -864 272
WIRE -448 272 -624 272
WIRE 80 272 -448 272
WIRE 112 272 80 272
WIRE 512 272 368 272
WIRE 512 288 512 272
WIRE -864 304 -864 272
WIRE -448 304 -448 272
WIRE 80 352 -144 352
WIRE 112 352 80 352
WIRE 384 352 368 352
WIRE 464 352 448 352
WIRE 512 384 512 368
WIRE -448 400 -448 384
WIRE -864 416 -864 384
WIRE 112 432 32 432
WIRE 384 432 368 432
WIRE 32 448 32 432
WIRE 32 544 32 528
WIRE -272 592 -336 592
WIRE -144 592 -144 352
WIRE -144 592 -192 592
WIRE 192 592 -144 592
WIRE 624 592 624 192
WIRE 624 592 272 592
WIRE -336 640 -336 592
WIRE -336 736 -336 720
FLAG -336 736 0
FLAG 384 432 0
FLAG 32 544 0
FLAG 464 352 0
FLAG -448 400 0
FLAG 512 384 0
FLAG 576 112 0
FLAG -864 416 0
FLAG -416 112 0
FLAG -224 192 0
FLAG 80 112 V1
FLAG 80 192 V2
FLAG 80 272 V3
FLAG 80 352 V4
FLAG 624 192 VREF
FLAG 432 112 _RST
FLAG 32 432 _PBR
SYMBOL res 288 576 R90
WINDOW 0 0 56 VBottom 2
WINDOW 3 32 56 VTop 2
SYMATTR InstName R1
SYMATTR Value 121K
SYMBOL res -288 608 R270
WINDOW 0 32 56 VTop 2
WINDOW 3 0 56 VBottom 2
SYMATTR InstName R2
SYMATTR Value 464K
SYMBOL cap 384 368 R270
WINDOW 0 32 32 VTop 2
WINDOW 3 0 32 VBottom 2
SYMATTR InstName C1
SYMATTR Value .001µ
SYMBOL voltage 32 432 R0
WINDOW 123 24 146 Left 2
WINDOW 39 24 125 Left 2
SYMATTR Value PWL(0 5 14 5 14.001 0 15.001 0 15.002 5)
SYMATTR InstName V1
SYMBOL voltage -336 624 R0
WINDOW 123 0 0 Left 2
WINDOW 39 0 0 Left 2
SYMATTR InstName V2
SYMATTR Value PWL(1 -5 11 -5 12 -4 13 -4 14 -5)
SYMBOL res -720 256 M90
WINDOW 0 0 56 VBottom 2
WINDOW 3 32 56 VTop 2
SYMATTR InstName R3
SYMATTR Value 2.15Meg
SYMBOL res -464 288 R0
SYMATTR InstName R4
SYMATTR Value 100K
SYMBOL voltage -864 288 R0
WINDOW 123 24 146 Left 2
WINDOW 39 24 125 Left 2
SYMATTR Value PWL(1 12 8 12 9 10 10 10 11 12)
SYMATTR InstName V3
SYMBOL res 464 128 R270
WINDOW 0 32 56 VTop 2
WINDOW 3 0 56 VBottom 2
SYMATTR InstName R5
SYMATTR Value 1Meg
SYMBOL voltage -96 192 R90
WINDOW 0 -32 56 VBottom 2
WINDOW 3 34 56 VTop 2
WINDOW 123 0 0 Left 2
WINDOW 39 0 0 Left 2
SYMATTR InstName V4
SYMATTR Value PWL(1 3.3 5 3.3 6 3 7 3 8 3.3)
SYMBOL voltage -272 112 R90
WINDOW 0 -32 56 VBottom 2
WINDOW 3 32 56 VTop 2
WINDOW 123 0 0 Left 2
WINDOW 39 0 0 Left 2
SYMATTR InstName V5
SYMATTR Value PWL(1 5 2 5 3 4 4 4 5 5)
SYMBOL res 496 176 R0
SYMATTR InstName R6
SYMATTR Value 93.1K
SYMBOL res 496 272 R0
SYMATTR InstName R7
SYMATTR Value 9.53K
SYMBOL LTC2900-2 240 272 R0
WINDOW 0 0 -96 Center 2
WINDOW 3 0 96 Center 2
SYMATTR InstName U1
TEXT 536 664 Left 2 !.tran 16 startup
