Version 4
SHEET 1 2652 1844
WIRE 1376 1248 1344 1248
WIRE 1488 1248 1376 1248
WIRE 1712 1248 1488 1248
WIRE 1344 1264 1344 1248
WIRE 1488 1264 1488 1248
WIRE 1712 1296 1712 1248
WIRE 1344 1360 1344 1344
WIRE 1488 1360 1488 1344
WIRE 1488 1360 1424 1360
WIRE 1552 1360 1488 1360
WIRE 1904 1360 1872 1360
WIRE 2016 1360 1984 1360
WIRE 1424 1376 1424 1360
WIRE 1424 1456 1424 1440
WIRE 1488 1472 1488 1360
WIRE 1552 1472 1488 1472
WIRE 1904 1472 1872 1472
WIRE 2016 1472 2016 1360
WIRE 2016 1472 1984 1472
WIRE 2112 1472 2016 1472
WIRE 2160 1472 2112 1472
WIRE 2208 1472 2160 1472
WIRE 2112 1488 2112 1472
WIRE 2208 1488 2208 1472
WIRE 1488 1584 1488 1472
WIRE 1552 1584 1488 1584
WIRE 2016 1584 2016 1472
WIRE 2016 1584 1872 1584
WIRE 2112 1584 2112 1552
WIRE 2208 1584 2208 1568
WIRE 1648 1680 1648 1664
WIRE 1776 1680 1776 1664
FLAG 1776 1680 0
FLAG 1648 1680 0
FLAG 1344 1360 0
FLAG 2208 1584 0
FLAG 2112 1584 0
FLAG 1376 1248 IN
FLAG 2160 1472 OUT
FLAG 1424 1456 0
SYMBOL ind 1888 1488 R270
WINDOW 0 32 56 VTop 2
WINDOW 3 5 56 VBottom 2
SYMATTR InstName L1
SYMATTR Value 150n
SYMATTR SpiceLine Rser=2m
SYMBOL VOLTAGE 1344 1248 R0
WINDOW 123 0 0 Left 0
WINDOW 39 0 0 Left 0
SYMATTR InstName V1
SYMATTR Value 5
SYMBOL cap 2096 1488 R0
WINDOW 123 24 84 Left 2
SYMATTR Value2 X2
SYMATTR InstName C1
SYMATTR Value 10µ
SYMBOL res 2000 1344 R90
WINDOW 0 0 56 VBottom 2
WINDOW 3 32 56 VTop 2
SYMATTR InstName R4
SYMATTR Value 500K
SYMBOL res 2192 1472 R0
SYMATTR InstName Rload
SYMATTR Value 0.45
SYMBOL cap 1408 1376 R0
SYMATTR InstName C2
SYMATTR Value 1µ
SYMBOL res 1472 1248 R0
SYMATTR InstName R1
SYMATTR Value 10
SYMBOL LTC3303C 1712 1456 R0
WINDOW 39 -96 365 Center 2
SYMATTR InstName U1
TEXT 2024 1736 Left 2 !.tran 1.5m startup
TEXT 1528 1768 Left 2 ;The output voltage is adjustable from \n0.5V to 3.65V in 50mV increments.
