Version 4
SHEET 1 936 680
WIRE 144 -160 -16 -160
WIRE 160 -160 144 -160
WIRE 400 -160 240 -160
WIRE -16 -112 -16 -160
WIRE 400 -112 400 -160
WIRE 144 -80 144 -160
WIRE 240 -80 240 -160
WIRE -16 0 -16 -48
WIRE 48 0 -16 0
WIRE 400 0 400 -48
WIRE 400 0 336 0
WIRE -16 80 -112 80
WIRE 48 80 -16 80
WIRE 400 80 336 80
WIRE 560 80 400 80
WIRE 688 80 560 80
WIRE 736 80 688 80
WIRE 848 80 736 80
WIRE -112 96 -112 80
WIRE 736 96 736 80
WIRE 848 96 848 80
WIRE -16 160 -16 80
WIRE 48 160 -16 160
WIRE 400 160 400 144
WIRE 400 160 336 160
WIRE 560 160 400 160
WIRE 560 176 560 160
WIRE -112 192 -112 176
WIRE 736 192 736 160
WIRE 848 192 848 176
WIRE 48 240 32 240
WIRE 400 240 336 240
WIRE 560 272 560 256
WIRE -16 320 -16 160
WIRE 48 320 -16 320
WIRE 352 320 336 320
WIRE 48 400 16 400
WIRE 528 400 336 400
WIRE 688 400 688 80
WIRE 688 400 608 400
WIRE -64 480 -80 480
WIRE 16 480 16 400
WIRE 16 480 0 480
WIRE 48 480 16 480
WIRE 352 480 336 480
WIRE 16 560 16 480
WIRE 400 560 400 240
WIRE 400 560 16 560
FLAG 352 480 0
FLAG -112 192 0
FLAG -80 480 0
FLAG 560 272 0
FLAG 736 192 0
FLAG 848 192 0
FLAG 848 80 OUT
FLAG -112 80 IN
FLAG 32 240 0
FLAG 352 320 0
SYMBOL ind 144 -144 R270
WINDOW 0 32 56 VTop 2
WINDOW 3 5 56 VBottom 2
SYMATTR InstName L1
SYMATTR Value 10µ
SYMATTR SpiceLine Rser=50m Rpar=10K
SYMBOL cap -32 -112 R0
SYMATTR InstName C1
SYMATTR Value 22n
SYMBOL cap 384 -112 R0
SYMATTR InstName C2
SYMATTR Value 22n
SYMBOL voltage -112 80 R0
SYMATTR InstName V1
SYMATTR Value 3.6
SYMBOL cap 0 464 R90
WINDOW 0 0 32 VBottom 2
WINDOW 3 32 32 VTop 2
SYMATTR InstName C3
SYMATTR Value 4.7µ
SYMBOL res 544 64 R0
WINDOW 3 31 75 Left 2
SYMATTR Value 3.83Meg
SYMATTR InstName R1
SYMBOL res 544 160 R0
WINDOW 3 34 78 Left 2
SYMATTR Value 348K
SYMATTR InstName R2
SYMBOL cap 384 80 R0
WINDOW 3 34 34 Left 2
WINDOW 39 21 57 Left 2
WINDOW 0 28 11 Left 2
SYMATTR Value 10p
SYMATTR SpiceLine Rser=200K
SYMATTR InstName C4
SYMBOL res 832 80 R0
SYMATTR InstName Rload
SYMATTR Value 240
SYMBOL cap 720 96 R0
SYMATTR Value 10µ
SYMATTR SpiceLine Rser=7m
SYMATTR InstName C5
SYMBOL LTC3130 192 224 R0
SYMATTR InstName U1
SYMBOL res 624 384 R90
WINDOW 0 0 56 VBottom 2
WINDOW 3 32 56 VTop 2
SYMATTR InstName R5
SYMATTR Value 1Meg
TEXT 680 536 Left 2 !.tran 8m startup
