Version 4
SHEET 1 1208 1064
WIRE 96 -48 -32 -48
WIRE 128 -48 96 -48
WIRE 448 -48 416 -48
WIRE 544 -48 448 -48
WIRE -32 -32 -32 -48
WIRE 544 -32 544 -48
WIRE 96 48 96 -48
WIRE 128 48 96 48
WIRE 448 48 448 -48
WIRE 448 48 416 48
WIRE 544 48 544 32
WIRE -32 64 -32 48
WIRE 96 144 96 48
WIRE 128 144 96 144
WIRE 512 144 416 144
WIRE 640 144 592 144
WIRE 752 144 640 144
WIRE 848 144 752 144
WIRE 944 144 848 144
WIRE 752 160 752 144
WIRE 848 160 848 144
WIRE 944 160 944 144
WIRE 640 240 640 224
WIRE 640 240 416 240
WIRE 752 240 752 224
WIRE 752 240 640 240
WIRE 848 256 848 224
WIRE 944 256 944 240
WIRE 96 336 96 144
WIRE 128 336 96 336
WIRE 448 336 416 336
WIRE 448 352 448 336
WIRE 512 352 448 352
WIRE 640 352 592 352
WIRE 752 352 640 352
WIRE 848 352 752 352
WIRE 944 352 848 352
WIRE 752 368 752 352
WIRE 848 368 848 352
WIRE 944 368 944 352
WIRE 32 432 16 432
WIRE 128 432 112 432
WIRE 448 432 416 432
WIRE 448 448 448 432
WIRE 640 448 640 432
WIRE 640 448 448 448
WIRE 752 448 752 432
WIRE 752 448 640 448
WIRE 848 464 848 432
WIRE 944 464 944 448
WIRE 432 528 416 528
WIRE 272 608 272 592
FLAG -32 64 0
FLAG 16 432 0
FLAG 272 608 0
FLAG 432 528 0
FLAG 544 48 0
FLAG 640 320 0
FLAG 848 256 0
FLAG 944 256 0
FLAG 640 528 0
FLAG 848 464 0
FLAG 944 464 0
FLAG -32 -48 IN
FLAG 544 -48 BAT
FLAG 944 144 OUT1
FLAG 944 352 OUT2
SYMBOL voltage -32 -48 R0
SYMATTR InstName V1
SYMATTR Value 5
SYMBOL res 128 416 R90
WINDOW 0 0 56 VBottom 2
WINDOW 3 32 56 VTop 2
SYMATTR InstName R1
SYMATTR Value 1.74K
SYMBOL cap 528 -32 R0
SYMATTR InstName C1
SYMATTR Value 10µ
SYMBOL ind 496 160 R270
WINDOW 0 32 56 VTop 2
WINDOW 3 5 56 VBottom 2
SYMATTR InstName L1
SYMATTR Value 4.7µ
SYMBOL cap 736 160 R0
WINDOW 0 26 14 Left 2
WINDOW 3 25 50 Left 2
SYMATTR InstName C2
SYMATTR Value 22p
SYMBOL res 624 224 R0
SYMATTR InstName R2
SYMATTR Value 309K
SYMBOL cap 832 160 R0
SYMATTR InstName C3
SYMATTR Value 10µ
SYMBOL ind 496 368 R270
WINDOW 0 32 56 VTop 2
WINDOW 3 5 56 VBottom 2
SYMATTR InstName L2
SYMATTR Value 4.7µ
SYMBOL res 624 432 R0
SYMATTR InstName R3
SYMATTR Value 649K
SYMBOL cap 832 368 R0
SYMATTR InstName C4
SYMATTR Value 10µ
SYMBOL cap 736 368 R0
WINDOW 0 26 14 Left 2
WINDOW 3 25 50 Left 2
SYMATTR InstName C5
SYMATTR Value 22p
SYMBOL res 928 144 R0
SYMATTR InstName Rload1
SYMATTR Value 6
SYMBOL res 928 352 R0
SYMATTR InstName Rload2
SYMATTR Value 3
SYMBOL LTC3559 272 240 R0
SYMATTR InstName U1
SYMBOL res 624 128 R0
SYMATTR InstName R4
SYMATTR Value 655K
SYMBOL res 624 336 R0
SYMATTR InstName R5
SYMATTR Value 324K
TEXT 160 672 Left 2 !.tran 1.5m startup
