Version 4
SHEET 1 2592 2488
WIRE 1600 1920 1472 1920
WIRE 1680 1920 1600 1920
WIRE 1808 1920 1680 1920
WIRE 1856 1920 1808 1920
WIRE 1968 1920 1936 1920
WIRE 1472 1936 1472 1920
WIRE 1808 1968 1808 1920
WIRE 1968 1968 1968 1920
WIRE 1600 1984 1600 1920
WIRE 1472 2032 1472 2016
WIRE 1680 2048 1680 1920
WIRE 1712 2048 1680 2048
WIRE 2208 2048 2064 2048
WIRE 2320 2048 2208 2048
WIRE 2432 2048 2320 2048
WIRE 2208 2064 2208 2048
WIRE 2320 2064 2320 2048
WIRE 2432 2064 2432 2048
WIRE 1600 2112 1600 2064
WIRE 1712 2112 1600 2112
WIRE 2320 2160 2320 2128
WIRE 2432 2160 2432 2144
WIRE 1504 2176 1456 2176
WIRE 1600 2176 1584 2176
WIRE 1712 2176 1600 2176
WIRE 2208 2176 2208 2144
WIRE 2208 2176 2064 2176
WIRE 1456 2192 1456 2176
WIRE 2208 2192 2208 2176
WIRE 1600 2208 1600 2176
WIRE 1712 2240 1680 2240
WIRE 2096 2240 2064 2240
WIRE 2096 2256 2096 2240
WIRE 1456 2288 1456 2256
WIRE 1600 2288 1600 2272
WIRE 2208 2288 2208 2272
WIRE 1888 2336 1888 2320
WIRE 2096 2352 2096 2336
FLAG 2096 2352 0
FLAG 1888 2336 0
FLAG 1456 2288 0
FLAG 1600 2288 0
FLAG 2208 2288 0
FLAG 1472 2032 0
FLAG 2320 2160 0
FLAG 2432 2160 0
FLAG 2432 2048 OUT
FLAG 1680 2240 0
FLAG 1472 1920 IN
SYMBOL ind 1840 1936 R270
WINDOW 0 32 56 VTop 2
WINDOW 3 5 56 VBottom 2
SYMATTR InstName L1
SYMATTR Value 4.7µ
SYMATTR SpiceLine Rpar=5K
SYMBOL RES 2080 2240 R0
SYMATTR InstName R1
SYMATTR Value 15K
SYMBOL res 1600 2160 R90
WINDOW 0 0 56 VBottom 2
WINDOW 3 32 56 VTop 2
SYMATTR InstName R2
SYMATTR Value 40.2K
SYMBOL cap 1440 2192 R0
SYMATTR InstName C1
SYMATTR Value 470p
SYMBOL cap 1584 2208 R0
SYMATTR InstName C2
SYMATTR Value 20p
SYMBOL res 2192 2048 R0
SYMATTR InstName R3
SYMATTR Value 909K
SYMBOL res 2192 2176 R0
SYMATTR InstName R4
SYMATTR Value 549K
SYMBOL VOLTAGE 1472 1920 R0
SYMATTR InstName V1
SYMATTR Value 1.2
SYMBOL polcap 2304 2064 R0
SYMATTR InstName C3
SYMATTR Value 22µ
SYMATTR SpiceLine Rser=.1
SYMBOL res 1584 1968 R0
SYMATTR InstName R5
SYMATTR Value 5K
SYMBOL POWERPRODUCTS\\LTC3401 1888 2144 R0
SYMATTR InstName U1
SYMBOL res 2416 2048 R0
SYMATTR InstName Rload
SYMATTR Value 20
TEXT 2224 2360 Left 2 !.tran 750u startup
