Version 4
SHEET 1 4652 4244
WIRE 928 1520 768 1520
WIRE 2096 1520 928 1520
WIRE 768 1536 768 1520
WIRE 1024 1584 1024 1568
WIRE 1120 1616 1088 1616
WIRE 768 1632 768 1616
WIRE 1024 1664 1024 1648
WIRE 1088 1664 1088 1616
WIRE 1088 1664 1024 1664
WIRE 928 1680 928 1520
WIRE 1024 1680 1024 1664
WIRE 1120 1680 1120 1664
WIRE 1216 1680 1216 1664
WIRE 1312 1680 1312 1664
WIRE 416 1728 416 1712
WIRE 448 1728 416 1728
WIRE 608 1728 528 1728
WIRE 1696 1728 1600 1728
WIRE 1792 1728 1792 1712
WIRE 1792 1728 1776 1728
WIRE 608 1744 608 1728
WIRE 864 1744 832 1744
WIRE 1440 1744 1376 1744
WIRE 1600 1744 1600 1728
WIRE 416 1840 416 1824
WIRE 464 1840 416 1840
WIRE 608 1840 608 1808
WIRE 608 1840 544 1840
WIRE 656 1840 608 1840
WIRE 768 1840 656 1840
WIRE 864 1840 768 1840
WIRE 1424 1840 1376 1840
WIRE 1504 1840 1424 1840
WIRE 1600 1840 1600 1808
WIRE 1600 1840 1504 1840
WIRE 1664 1840 1600 1840
WIRE 1792 1840 1792 1824
WIRE 1792 1840 1744 1840
WIRE 2096 1840 2096 1520
WIRE 2176 1840 2096 1840
WIRE 2496 1840 2496 1824
WIRE 2496 1840 2464 1840
WIRE 2688 1840 2496 1840
WIRE 2880 1840 2768 1840
WIRE 3024 1840 2880 1840
WIRE 3136 1840 3024 1840
WIRE 3168 1840 3136 1840
WIRE 656 1856 656 1840
WIRE 768 1856 768 1840
WIRE 1424 1856 1424 1840
WIRE 1504 1856 1504 1840
WIRE 2880 1856 2880 1840
WIRE 3024 1856 3024 1840
WIRE 3136 1856 3136 1840
WIRE 656 1936 592 1936
WIRE 768 1936 768 1920
WIRE 768 1936 656 1936
WIRE 864 1936 768 1936
WIRE 1424 1936 1424 1920
WIRE 1424 1936 1376 1936
WIRE 1504 1936 1424 1936
WIRE 1632 1936 1504 1936
WIRE 2096 1936 1968 1936
WIRE 2176 1936 2096 1936
WIRE 2496 1936 2464 1936
WIRE 592 1952 592 1936
WIRE 1632 1952 1632 1936
WIRE 2880 1952 2880 1920
WIRE 3024 1952 3024 1920
WIRE 3136 1952 3136 1936
WIRE 864 2032 816 2032
WIRE 1408 2032 1376 2032
WIRE 1968 2032 1968 2016
WIRE 1968 2032 1904 2032
WIRE 2032 2032 1968 2032
WIRE 2176 2032 2032 2032
WIRE 2480 2032 2464 2032
WIRE 2592 2032 2592 2016
WIRE 2592 2032 2560 2032
WIRE 592 2048 592 2032
WIRE 1632 2048 1632 2032
WIRE 864 2128 832 2128
WIRE 1408 2128 1376 2128
WIRE 2176 2128 2144 2128
WIRE 2624 2128 2464 2128
WIRE 2704 2128 2624 2128
WIRE 2864 2128 2784 2128
WIRE 3008 2128 2864 2128
WIRE 3152 2128 3008 2128
WIRE 2624 2144 2624 2128
WIRE 2864 2144 2864 2128
WIRE 3008 2144 3008 2128
WIRE 3152 2144 3152 2128
WIRE 768 2224 736 2224
WIRE 864 2224 832 2224
WIRE 1408 2224 1376 2224
WIRE 1504 2224 1472 2224
WIRE 2048 2224 2016 2224
WIRE 2176 2224 2128 2224
WIRE 2496 2224 2464 2224
WIRE 2864 2240 2864 2208
WIRE 3008 2240 3008 2208
WIRE 3152 2240 3152 2224
WIRE 768 2320 736 2320
WIRE 864 2320 832 2320
WIRE 1408 2320 1376 2320
WIRE 1504 2320 1472 2320
WIRE 2176 2320 2144 2320
WIRE 2480 2320 2480 2032
WIRE 2480 2320 2464 2320
WIRE 2048 2416 2016 2416
WIRE 2176 2416 2128 2416
WIRE 2512 2416 2464 2416
WIRE 2512 2432 2512 2416
WIRE 2320 2496 2320 2464
WIRE 1024 2688 1024 2672
WIRE 928 2704 928 2672
WIRE 1312 2704 1312 2672
WIRE 1024 2768 1024 2752
WIRE 832 2800 816 2800
WIRE 928 2800 928 2784
WIRE 928 2800 896 2800
WIRE 1120 2800 1120 2672
WIRE 1120 2800 928 2800
WIRE 1312 2800 1312 2784
WIRE 1312 2800 1120 2800
FLAG 1120 1664 0
FLAG 1216 1664 0
FLAG 1024 1568 0
FLAG 768 1520 IN
FLAG 1312 1664 0
FLAG 1408 2128 0
FLAG 832 2128 0
FLAG 1504 2224 0
FLAG 1504 2320 0
FLAG 736 2224 0
FLAG 736 2320 0
FLAG 816 2800 0
FLAG 1024 2768 0
FLAG 768 1632 0
FLAG 3024 1952 0
FLAG 3168 1840 OUT1
FLAG 2096 2000 0
FLAG 2320 2496 0
FLAG 2496 1824 SW1
IOPIN 2496 1824 Out
FLAG 2496 1936 ISNS1
IOPIN 2496 1936 BiDir
FLAG 2512 2432 0
FLAG 1120 1616 VCC
FLAG 2592 2016 VCC
FLAG 2880 1952 0
FLAG 1792 1712 SW1
FLAG 1632 2048 0
FLAG 1792 1824 ISNS1
FLAG 3008 2240 0
FLAG 3152 2240 0
FLAG 3152 2128 OUT2
FLAG 2624 2144 SW2
IOPIN 2624 2144 Out
FLAG 2496 2224 ISNS2
IOPIN 2496 2224 BiDir
FLAG 2864 2240 0
FLAG 2016 2224 VCC
FLAG 2016 2416 VCC
FLAG 832 1744 PWM2
FLAG 2144 2320 PWM2
FLAG 416 1712 SW2
FLAG 592 2048 0
FLAG 416 1824 ISNS2
FLAG 816 2032 OUT2
IOPIN 816 2032 In
FLAG 1408 2032 OUT1
IOPIN 1408 2032 In
FLAG 1440 1744 PWM1
FLAG 2144 2128 PWM1
FLAG 1904 2032 VCC
FLAG 3136 1952 0
FLAG 2032 2096 0
SYMBOL voltage 768 1520 M0
WINDOW 123 0 0 Left 2
WINDOW 39 0 0 Left 2
SYMATTR InstName VIN1
SYMATTR Value 12
SYMBOL cap 1008 1584 R0
WINDOW 0 -31 3 Left 2
WINDOW 3 -28 50 Left 2
SYMATTR InstName C3
SYMATTR Value 1µ
SYMBOL cap 1408 2208 M90
WINDOW 0 0 32 VBottom 2
WINDOW 3 32 32 VTop 2
SYMATTR InstName C5
SYMATTR Value 100p
SYMBOL cap 1408 2304 M90
WINDOW 0 0 32 VBottom 2
WINDOW 3 32 32 VTop 2
SYMATTR InstName C9
SYMATTR Value 6800p
SYMBOL cap 832 2208 R90
WINDOW 0 0 32 VBottom 2
WINDOW 3 32 32 VTop 2
SYMATTR InstName C18
SYMATTR Value 100p
SYMBOL cap 832 2304 R90
WINDOW 0 0 32 VBottom 2
WINDOW 3 32 32 VTop 2
SYMATTR InstName C19
SYMATTR Value 6800p
SYMBOL cap 896 2784 R90
WINDOW 0 0 32 VBottom 2
WINDOW 3 32 32 VTop 2
SYMATTR InstName C20
SYMATTR Value 1µ
SYMBOL cap 1008 2688 R0
SYMATTR InstName C21
SYMATTR Value 1µ
SYMBOL ind 2672 1856 R270
WINDOW 0 32 56 VTop 2
WINDOW 3 5 56 VBottom 2
WINDOW 39 -51 49 VTop 2
SYMATTR InstName L1
SYMATTR Value 0.215µ
SYMATTR SpiceLine Rser=0.35m
SYMBOL cap 3008 1856 R0
WINDOW 123 25 59 Left 2
WINDOW 3 35 34 Left 2
SYMATTR Value2 x2
SYMATTR Value 470µ
SYMATTR InstName C22
SYMATTR SpiceLine Rser=5m
SYMBOL res 1952 1920 R0
SYMATTR InstName R12
SYMATTR Value 1
SYMBOL cap 2016 2032 R0
SYMATTR InstName C23
SYMATTR Value 1µ
SYMBOL cap 2080 1936 R0
SYMATTR InstName C24
SYMATTR Value 10µ
SYMBOL PowerProducts\\LTC7050 2320 2128 R0
SYMATTR InstName U3
SYMBOL res 2576 2016 R90
WINDOW 0 0 56 VBottom 2
WINDOW 3 32 56 VTop 2
SYMATTR InstName R17
SYMATTR Value 10K
SYMBOL cap 2864 1856 R0
WINDOW 123 25 59 Left 2
WINDOW 3 35 34 Left 2
SYMATTR Value2 x2
SYMATTR Value 47µ
SYMATTR InstName C25
SYMATTR SpiceLine Rser=5m
SYMBOL cap 1408 1856 R0
SYMATTR InstName C26
SYMATTR Value 3.3n
SYMBOL res 1488 1840 R0
SYMATTR InstName R19
SYMATTR Value 150
SYMBOL res 1792 1712 R90
WINDOW 0 0 56 VBottom 2
WINDOW 3 32 56 VTop 2
SYMATTR InstName R20
SYMATTR Value 43.2K
SYMBOL cap 1584 1744 R0
SYMATTR InstName C27
SYMATTR Value 47p
SYMBOL voltage 1632 1936 R0
WINDOW 123 0 0 Left 0
WINDOW 39 0 0 Left 0
SYMATTR InstName V3
SYMATTR Value 1.5
SYMBOL res 1760 1824 R90
WINDOW 0 0 56 VBottom 2
WINDOW 3 32 56 VTop 2
SYMATTR InstName R21
SYMATTR Value 0
SYMBOL res 912 2688 R0
SYMATTR InstName R22
SYMATTR Value 10K
SYMBOL ind 2688 2144 R270
WINDOW 0 32 56 VTop 2
WINDOW 3 5 56 VBottom 2
WINDOW 39 -51 49 VTop 2
SYMATTR InstName L2
SYMATTR Value 0.215µ
SYMATTR SpiceLine Rser=0.35m
SYMBOL cap 2992 2144 R0
WINDOW 123 25 59 Left 2
WINDOW 3 35 34 Left 2
SYMATTR Value2 x2
SYMATTR Value 470µ
SYMATTR InstName C28
SYMATTR SpiceLine Rser=5m
SYMBOL res 3136 2128 R0
SYMATTR InstName R23
SYMATTR Value 0.035
SYMBOL cap 2848 2144 R0
WINDOW 123 25 59 Left 2
WINDOW 3 35 34 Left 2
SYMATTR Value2 x2
SYMATTR Value 47µ
SYMATTR InstName C29
SYMATTR SpiceLine Rser=5m
SYMBOL res 2144 2208 R90
WINDOW 0 0 56 VBottom 2
WINDOW 3 32 56 VTop 2
SYMATTR InstName R24
SYMATTR Value 10K
SYMBOL res 2144 2400 R90
WINDOW 0 0 56 VBottom 2
WINDOW 3 32 56 VTop 2
SYMATTR InstName R25
SYMATTR Value 10K
SYMBOL res 544 1712 R90
WINDOW 0 0 56 VBottom 2
WINDOW 3 32 56 VTop 2
SYMATTR InstName R26
SYMATTR Value 43.2K
SYMBOL cap 624 1744 M0
SYMATTR InstName C30
SYMATTR Value 47p
SYMBOL voltage 592 1936 M0
WINDOW 123 0 0 Left 0
WINDOW 39 0 0 Left 0
SYMATTR InstName V4
SYMATTR Value 1.5
SYMBOL res 448 1856 R270
WINDOW 0 32 56 VTop 2
WINDOW 3 0 56 VBottom 2
SYMATTR InstName R27
SYMATTR Value 0
SYMBOL cap 752 1856 R0
SYMATTR InstName C31
SYMATTR Value 3.3n
SYMBOL res 640 1840 R0
SYMATTR InstName R28
SYMATTR Value 150
SYMBOL res 3120 1840 R0
SYMATTR InstName R29
SYMATTR Value 0.035
SYMBOL res 1296 2688 R0
SYMATTR InstName R30
SYMATTR Value 10K
SYMBOL LTC3884-1 1120 2032 R0
SYMATTR InstName U1
SYMATTR SpiceLine VIN_ON=5.5 VIN_OFF=5 Vout_0=1 Vout_1=1 Ilim0_range=1 Ilim1_range=1 OC_limit0=1 OC_limit1=1 Mode_ll=1 Fault_response=2 Retry_delay=.1m gm0=3m gm1=3m Rth0=5K Rth1=5K LowDcr=0
SYMATTR SpiceLine2 Freq=500K PHs_0=0 PHs_1=180 Ton0_delay=.3m Ton0_rise=.5m Ton1_delay=.3m Ton1_rise=.5m Toff0_delay=1m Toff0_fall=2m Toff1_delay=.5m Toff1_fall=1m Vout0_range=1 Vout1_range=1 Sync=0
TEXT 2648 2584 Left 2 !.tran 1.5m startup
TEXT 3112 1784 Left 2 ;1V, 30A
TEXT 3128 2072 Left 2 ;1V, 30A
TEXT 624 1576 Left 2 ;7 to 14V
TEXT 3272 1720 Left 2 ;Please read the following notes carefully since the model behaves differently from the user \ninterface for the LTC3884-1.\n \n(1) PMBus communication and memory address related functions and pins are not modeled.\n \n(2) Changes to parameter values while the simulation is running will not take effect unless the\nsimulation is stopped and restarted. This is different from the way the part operates which will\nrespond to the changes while running.  \n \n(3) Share_clk is not modeled. The default time reference of LTspice is used as the common time \nbase for all time-related parameters.\n \n(4)The following parameters can be defined by right-clicking on the LTC3884-1 symbol.\nThe nomenclature used here differs from the one in the data sheet. If any value of these parameters is\nset beyond the scope described in the data sheet, the resulting simulation will not be meaningful.\n \n     VIN_ON & VIN_OFF -- in volts, set the unit start/stop input voltages; \n     Freq -- in Hz, sets switching frequency as one of values of 250k, 350k, 425k, 500k, 575k, 650k, \n                 750k,1000k. Freq_cfg pin needs to float or short to VDD25, to make the value be in effect;\n     PHs_0 & PHs_1 -- in degree, set phase angle related to SYNC signal. \n                Certain combinations are restricted as in data sheet. Phase_cfg pin needs to float or \n                short to VDD25, to make the value be in effect;  \n     Ton0_delay & Ton0_rise; Ton1_delay & Ton1_rise -- in sec, set delay and soft-start timers for \n                channel0 and channel1. Initialization time is not modeled; \n     Toff0_delay & Toff0_fall; Toff1_delay & Toff1_fall -- in sec, set delay and soft-off timers for \n                channel0 and channel1;\n     Vout_0 & Vout_1 -- in volt, set output voltages respectively. Vout_cfgn pin needs to float or \n                short to VDD25, to make the value be in effect;\n     Vout0_range & Vout1_range -- set maximum output range, with value 0\n                for 4.096V (CH0) and 5.5V (CH1), value 1 for 2.75V;\n     Ilim0_range & Ilim1_range -- set maximum sensed peak current range, with value 0\n               for low (45.14mV), and 1 for high (81.25mV);\n     OC_limit0 & OC_limit1 -- set ratio of peak current limit to the maximum value defined by Ilimit_range. \n               It must be one of values: 0.5, 0.572, 0.642, 0.714, 0.786, 0.858, 0.928, 1;\n     Mode_II -- sets light load operation mode: 0 for discontinuous, 1 for forced continuous;\n     Fault_response -- sets the response mode of the LTC3884-1 to occuring faults:\n              0 for ignore, 1 for latch up, 2 for Hiccup after Retry_delay time;\n     Retry_delay -- in sec, sets the timer before the LTC3884-1 turns on after a fault;\n     gm -- transconductance of the error amplifier. It must be between 1m mho and 5.73m mho;\n     Rth -- Compensation resistor. It must be set between 0k ohms and 62k ohms;\n     LowDCR -- set to 1 if DCR is below 1m ohm and make RC = L/(5*DCR), set to 0 if DCR is above \n               1m ohm and make RC = L/DCR.
