Version 4
SHEET 1 1252 868
WIRE 192 48 48 48
WIRE 272 48 192 48
WIRE 352 48 272 48
WIRE 432 48 352 48
WIRE 48 64 48 48
WIRE 272 64 272 48
WIRE 352 64 352 48
WIRE 432 64 432 48
WIRE 192 128 192 48
WIRE 208 128 192 128
WIRE 48 160 48 144
WIRE 0 224 -144 224
WIRE 64 224 0 224
WIRE 96 224 64 224
WIRE 208 224 176 224
WIRE 512 224 496 224
WIRE 624 224 592 224
WIRE 704 224 624 224
WIRE 800 224 704 224
WIRE -144 240 -144 224
WIRE 0 240 0 224
WIRE 704 240 704 224
WIRE 800 240 800 224
WIRE -144 336 -144 320
WIRE 0 336 0 304
WIRE 64 336 64 224
WIRE 208 336 64 336
WIRE 624 336 624 224
WIRE 624 336 496 336
WIRE 704 336 704 304
WIRE 800 336 800 320
WIRE 352 400 352 384
FLAG 48 160 0
FLAG 352 400 0
FLAG 704 336 0
FLAG 800 336 0
FLAG 800 224 OUT1
FLAG 0 336 0
FLAG -144 336 0
FLAG -144 224 OUT2
FLAG 48 48 IN
SYMBOL VOLTAGE 48 48 R0
SYMATTR InstName V1
SYMATTR Value 5
SYMBOL polcap 688 240 R0
SYMATTR InstName C1
SYMATTR Value 10µ
SYMBOL ind 496 240 R270
WINDOW 0 32 56 VTop 2
WINDOW 3 5 56 VBottom 2
SYMATTR InstName L1
SYMATTR Value 2.2µ
SYMBOL polcap -16 240 R0
SYMATTR InstName C3
SYMATTR Value 10µ
SYMBOL ind 192 240 M270
WINDOW 0 32 56 VTop 2
WINDOW 3 5 56 VBottom 2
SYMATTR InstName L2
SYMATTR Value 2.2µ
SYMBOL res 784 224 R0
SYMATTR InstName Rload1
SYMATTR Value 3
SYMBOL res -160 224 R0
SYMATTR InstName Rload2
SYMATTR Value 5
SYMBOL PowerProducts\\LTC3407-3 352 224 R0
SYMATTR InstName U1
TEXT 576 384 Left 2 !.tran 200u startup
