Version 4
SHEET 1 880 680
WIRE 160 -112 -16 -112
WIRE 288 -112 160 -112
WIRE 592 -112 288 -112
WIRE 688 -112 592 -112
WIRE 160 -96 160 -112
WIRE 288 -96 288 -112
WIRE 688 -96 688 -112
WIRE -16 -32 -16 -112
WIRE 80 -32 -16 -32
WIRE 432 -32 368 -32
WIRE 592 -32 592 -112
WIRE 592 -32 512 -32
WIRE -16 -16 -16 -32
WIRE 688 0 688 -16
WIRE 80 64 -16 64
WIRE 400 64 368 64
WIRE 448 64 400 64
WIRE 592 64 448 64
WIRE 688 64 592 64
WIRE -16 80 -16 64
WIRE 448 80 448 64
WIRE 688 80 688 64
WIRE 592 96 592 64
WIRE 448 160 368 160
WIRE -16 176 -16 160
WIRE 448 176 448 160
WIRE 592 176 592 160
WIRE 688 176 688 160
WIRE 400 256 400 64
WIRE 400 256 368 256
WIRE 448 272 448 256
WIRE 448 352 368 352
WIRE 592 352 448 352
WIRE 688 352 592 352
WIRE 448 368 448 352
WIRE 688 368 688 352
WIRE 592 384 592 352
WIRE 448 448 368 448
WIRE 448 464 448 448
WIRE 592 464 592 448
WIRE 688 464 688 448
WIRE 160 528 160 512
WIRE 288 528 288 512
WIRE 448 560 448 544
FLAG 688 0 0
FLAG -16 176 0
FLAG 160 528 0
FLAG 288 528 0
FLAG 448 272 0
FLAG 592 176 0
FLAG 688 176 0
FLAG 688 64 OUT1
FLAG 688 -112 IN
FLAG 448 560 0
FLAG 592 464 0
FLAG 688 464 0
FLAG 688 352 OUT2
SYMBOL PowerProducts\\LTC3537 224 208 R0
SYMATTR InstName U1
SYMBOL voltage 688 -112 R0
SYMATTR InstName V1
SYMATTR Value 1.5
SYMBOL ind 528 -16 M270
WINDOW 0 32 56 VTop 2
WINDOW 3 5 56 VBottom 2
SYMATTR InstName L1
SYMATTR Value 2.2µ
SYMATTR SpiceLine Rpar=2K
SYMBOL res -32 -32 R0
SYMATTR InstName R1
SYMATTR Value 665K
SYMBOL res -32 64 R0
SYMATTR InstName R2
SYMATTR Value 1Meg
SYMBOL res 432 64 R0
SYMATTR InstName R3
SYMATTR Value 1.74Meg
SYMBOL res 432 160 R0
SYMATTR InstName R4
SYMATTR Value 1Meg
SYMBOL cap 576 96 R0
SYMATTR InstName C1
SYMATTR Value 4.7µ
SYMBOL res 432 352 R0
SYMATTR InstName R5
SYMATTR Value 2.05Meg
SYMBOL res 432 448 R0
SYMATTR InstName R6
SYMATTR Value 511K
SYMBOL cap 576 384 R0
SYMATTR InstName C2
SYMATTR Value 1µ
SYMBOL res 672 64 R0
SYMATTR InstName Rload1
SYMATTR Value 33
SYMBOL res 672 352 R0
SYMATTR InstName Rload2
SYMATTR Value 30
TEXT 568 528 Left 2 !.tran 500u startup
