Version 4
SHEET 1 5232 2820
WIRE 128 272 80 272
WIRE 560 272 128 272
WIRE 2032 272 560 272
WIRE 80 336 80 272
WIRE 512 336 320 336
WIRE 2096 336 512 336
WIRE 320 352 320 336
WIRE 80 432 80 416
WIRE 320 448 320 432
WIRE 736 496 64 496
WIRE 1728 496 816 496
WIRE 2544 496 1792 496
WIRE 1568 544 928 544
WIRE 672 560 128 560
WIRE 2480 560 1904 560
WIRE -432 640 -512 640
WIRE -352 640 -432 640
WIRE -160 640 -352 640
WIRE -96 640 -160 640
WIRE 176 640 -16 640
WIRE 560 640 560 272
WIRE 560 640 464 640
WIRE 1120 640 560 640
WIRE 1424 640 1408 640
WIRE 1504 640 1488 640
WIRE 2032 640 2032 272
WIRE 2144 640 2032 640
WIRE 2608 640 2432 640
WIRE 2736 640 2688 640
WIRE 2816 640 2736 640
WIRE 2928 640 2816 640
WIRE 3008 640 2928 640
WIRE -512 656 -512 640
WIRE -352 656 -352 640
WIRE 2816 656 2816 640
WIRE 3008 656 3008 640
WIRE 928 672 928 544
WIRE 1088 672 928 672
WIRE 128 736 128 560
WIRE 176 736 128 736
WIRE 512 736 512 336
WIRE 512 736 464 736
WIRE 992 736 976 736
WIRE 1088 736 1088 672
WIRE 1088 736 1056 736
WIRE 1120 736 1088 736
WIRE 1728 736 1728 496
WIRE 1728 736 1408 736
WIRE 2096 736 2096 336
WIRE 2144 736 2096 736
WIRE 2480 736 2480 560
WIRE 2480 736 2432 736
WIRE -512 752 -512 736
WIRE -352 752 -352 720
WIRE 2816 752 2816 720
WIRE 3008 752 3008 736
WIRE 736 784 736 496
WIRE 1088 784 736 784
WIRE 1792 784 1792 496
WIRE 1792 784 1440 784
WIRE 64 832 64 496
WIRE 176 832 64 832
WIRE 512 832 512 736
WIRE 512 832 464 832
WIRE 928 832 928 672
WIRE 976 832 928 832
WIRE 1088 832 1088 784
WIRE 1088 832 1056 832
WIRE 1120 832 1088 832
WIRE 1440 832 1440 784
WIRE 1440 832 1408 832
WIRE 1456 832 1440 832
WIRE 1568 832 1568 544
WIRE 1568 832 1536 832
WIRE 2096 832 2096 736
WIRE 2144 832 2096 832
WIRE 2544 832 2544 496
WIRE 2544 832 2432 832
WIRE -160 928 -160 640
WIRE -96 928 -160 928
WIRE 176 928 -16 928
WIRE 736 928 464 928
WIRE 928 928 928 832
WIRE 976 928 928 928
WIRE 1120 928 1056 928
WIRE 1456 928 1408 928
WIRE 1568 928 1568 832
WIRE 1568 928 1536 928
WIRE 2144 928 1792 928
WIRE 2608 928 2432 928
WIRE 2736 928 2736 640
WIRE 2736 928 2688 928
WIRE 176 1024 128 1024
WIRE 512 1024 512 832
WIRE 512 1024 464 1024
WIRE 1120 1024 1088 1024
WIRE 1456 1024 1408 1024
WIRE 1568 1024 1568 928
WIRE 1568 1024 1536 1024
WIRE 2096 1024 2096 832
WIRE 2144 1024 2096 1024
WIRE 2480 1024 2432 1024
WIRE 64 1120 64 832
WIRE 176 1120 64 1120
WIRE 608 1120 464 1120
WIRE 736 1120 736 928
WIRE 1120 1120 736 1120
WIRE 1792 1120 1792 928
WIRE 1792 1120 1408 1120
WIRE 2144 1120 1968 1120
WIRE 2544 1120 2544 832
WIRE 2544 1120 2432 1120
WIRE 176 1216 160 1216
WIRE 512 1216 512 1024
WIRE 512 1216 464 1216
WIRE 672 1216 672 560
WIRE 1120 1216 672 1216
WIRE 1904 1216 1904 560
WIRE 1904 1216 1408 1216
WIRE 2096 1216 2096 1024
WIRE 2144 1216 2096 1216
WIRE 2448 1216 2432 1216
WIRE 672 1264 672 1216
WIRE 704 1264 672 1264
WIRE 816 1264 816 496
WIRE 816 1264 784 1264
WIRE 1728 1264 1728 736
WIRE 1776 1264 1728 1264
WIRE 1904 1264 1904 1216
WIRE 1904 1264 1856 1264
WIRE 320 1280 320 1264
WIRE 2288 1280 2288 1264
WIRE -160 1328 -160 928
WIRE 1120 1328 -160 1328
WIRE 2736 1328 2736 928
WIRE 2736 1328 1408 1328
WIRE 1120 1424 1088 1424
WIRE 1440 1424 1408 1424
WIRE 1120 1520 880 1520
WIRE 1616 1520 1408 1520
WIRE 880 1536 880 1520
WIRE 1616 1536 1616 1520
WIRE 608 1600 608 1120
WIRE 704 1600 608 1600
WIRE 1120 1616 880 1616
WIRE 1616 1616 1408 1616
WIRE 1968 1616 1968 1120
WIRE 1968 1616 1856 1616
WIRE 880 1632 880 1616
WIRE 1616 1632 1616 1616
WIRE 128 1680 128 1024
WIRE 656 1680 128 1680
WIRE 2480 1680 2480 1024
WIRE 2480 1680 1920 1680
WIRE 1024 1712 1008 1712
WIRE 1120 1712 1088 1712
WIRE 1440 1712 1408 1712
WIRE 1520 1712 1504 1712
WIRE 608 1728 128 1728
WIRE 880 1728 880 1712
WIRE 1616 1728 1616 1712
WIRE 2480 1728 1968 1728
WIRE -160 1808 -160 1328
WIRE -96 1808 -160 1808
WIRE 176 1808 -16 1808
WIRE 560 1808 560 640
WIRE 560 1808 464 1808
WIRE 1024 1808 1008 1808
WIRE 1120 1808 1088 1808
WIRE 1440 1808 1408 1808
WIRE 1520 1808 1504 1808
WIRE 2032 1808 2032 640
WIRE 2144 1808 2032 1808
WIRE 2608 1808 2432 1808
WIRE 2736 1808 2736 1328
WIRE 2736 1808 2688 1808
WIRE 128 1904 128 1728
WIRE 176 1904 128 1904
WIRE 512 1904 512 1216
WIRE 512 1904 464 1904
WIRE 704 1904 704 1600
WIRE 1120 1904 704 1904
WIRE 1856 1904 1856 1616
WIRE 1856 1904 1408 1904
WIRE 2096 1904 2096 1216
WIRE 2144 1904 2096 1904
WIRE 2480 1904 2480 1728
WIRE 2480 1904 2432 1904
WIRE 64 2000 64 1120
WIRE 176 2000 64 2000
WIRE 512 2000 512 1904
WIRE 512 2000 464 2000
WIRE 656 2000 656 1680
WIRE 1120 2000 656 2000
WIRE 1920 2000 1920 1680
WIRE 1920 2000 1408 2000
WIRE 2096 2000 2096 1904
WIRE 2144 2000 2096 2000
WIRE 2544 2000 2544 1120
WIRE 2544 2000 2432 2000
WIRE 656 2048 656 2000
WIRE 704 2048 656 2048
WIRE 816 2048 816 1264
WIRE 816 2048 784 2048
WIRE 1728 2048 1728 1264
WIRE 1792 2048 1728 2048
WIRE 1920 2048 1920 2000
WIRE 1920 2048 1872 2048
WIRE -160 2096 -160 1808
WIRE -96 2096 -160 2096
WIRE 176 2096 -16 2096
WIRE 1120 2096 464 2096
WIRE 2144 2096 1408 2096
WIRE 2608 2096 2432 2096
WIRE 2736 2096 2736 1808
WIRE 2736 2096 2688 2096
WIRE 176 2192 128 2192
WIRE 512 2192 512 2000
WIRE 512 2192 464 2192
WIRE 608 2192 608 1728
WIRE 1120 2192 608 2192
WIRE 1968 2192 1968 1728
WIRE 1968 2192 1408 2192
WIRE 2096 2192 2096 2000
WIRE 2144 2192 2096 2192
WIRE 2480 2192 2432 2192
WIRE 608 2240 608 2192
WIRE 704 2240 608 2240
WIRE 816 2240 816 2048
WIRE 816 2240 784 2240
WIRE 1728 2240 1728 2048
WIRE 1792 2240 1728 2240
WIRE 1968 2240 1968 2192
WIRE 1968 2240 1872 2240
WIRE 64 2288 64 2000
WIRE 176 2288 64 2288
WIRE 1120 2288 464 2288
WIRE 2144 2288 1408 2288
WIRE 2544 2288 2544 2000
WIRE 2544 2288 2432 2288
WIRE 704 2368 608 2368
WIRE 816 2368 816 2240
WIRE 816 2368 784 2368
WIRE 1728 2368 1728 2240
WIRE 1792 2368 1728 2368
WIRE 1968 2368 1872 2368
WIRE 176 2384 160 2384
WIRE 512 2384 512 2192
WIRE 512 2384 464 2384
WIRE 1120 2384 1024 2384
WIRE 1488 2384 1408 2384
WIRE 2096 2384 2096 2192
WIRE 2144 2384 2096 2384
WIRE 2448 2384 2432 2384
WIRE 320 2448 320 2432
WIRE 2288 2448 2288 2432
WIRE 1264 2464 1264 2432
WIRE 128 2480 128 2192
WIRE 608 2480 608 2368
WIRE 608 2480 128 2480
WIRE 1024 2480 1024 2384
WIRE 1024 2480 608 2480
WIRE 1488 2480 1488 2384
WIRE 1968 2480 1968 2368
WIRE 1968 2480 1488 2480
WIRE 2480 2480 2480 2192
WIRE 2480 2480 1968 2480
FLAG 80 432 0
FLAG 128 272 IN
FLAG 976 736 0
FLAG 1504 640 0
FLAG 1088 1024 0
FLAG 320 1280 0
FLAG 1264 2464 0
FLAG -352 752 0
FLAG -512 752 0
FLAG 160 1216 0
FLAG 1088 1424 0
FLAG 1008 1712 0
FLAG 1008 1808 0
FLAG 1520 1712 0
FLAG 1520 1808 0
FLAG -432 640 OUT0
FLAG 320 2448 0
FLAG 160 2384 0
FLAG 2288 1280 0
FLAG 2816 752 0
FLAG 3008 752 0
FLAG 2448 1216 0
FLAG 2928 640 OUT1
FLAG 2288 2448 0
FLAG 2448 2384 0
FLAG 1440 1424 0
FLAG 320 448 0
FLAG 880 1728 0
FLAG 1616 1728 0
SYMBOL voltage 80 320 R0
SYMATTR InstName V1
SYMATTR Value 12
SYMBOL cap 1056 720 R90
WINDOW 0 0 32 VBottom 2
WINDOW 3 32 32 VTop 2
SYMATTR InstName C1
SYMATTR Value 2.2µ
SYMBOL cap 1424 624 M90
WINDOW 0 0 32 VBottom 2
WINDOW 3 32 32 VTop 2
SYMATTR InstName C3
SYMATTR Value 4.7µ
SYMBOL res 960 848 R270
WINDOW 0 32 56 VTop 2
WINDOW 3 0 56 VBottom 2
SYMATTR InstName R1
SYMATTR Value 100K
SYMBOL res 1552 912 R90
WINDOW 0 0 56 VBottom 2
WINDOW 3 32 56 VTop 2
SYMATTR InstName R2
SYMATTR Value 100K
SYMBOL LTC7050 2288 2096 R0
SYMATTR InstName U5
SYMBOL ind 0 656 M270
WINDOW 0 32 56 VTop 2
WINDOW 3 5 56 VBottom 2
SYMATTR InstName L1
SYMATTR Value 0.2µ
SYMATTR SpiceLine Rser=20m
SYMBOL res -528 640 R0
SYMATTR InstName Rload0
SYMATTR Value 20.83m
SYMBOL res 688 2064 R270
WINDOW 0 32 56 VTop 2
WINDOW 3 0 56 VBottom 2
SYMATTR InstName R4
SYMATTR Value 499
SYMBOL res 688 1280 R270
WINDOW 0 32 56 VTop 2
WINDOW 3 0 56 VBottom 2
SYMATTR InstName R5
SYMATTR Value 499
SYMBOL res 960 944 R270
WINDOW 0 32 56 VTop 2
WINDOW 3 0 56 VBottom 2
SYMATTR InstName R6
SYMATTR Value 100K
SYMBOL ind 0 944 M270
WINDOW 0 32 56 VTop 2
WINDOW 3 5 56 VBottom 2
SYMATTR InstName L2
SYMATTR Value 0.2µ
SYMATTR SpiceLine Rser=20m
SYMBOL cap 1088 1696 R90
WINDOW 0 0 32 VBottom 2
WINDOW 3 32 32 VTop 2
SYMATTR InstName C4
SYMATTR Value 100p
SYMBOL cap 1088 1792 R90
WINDOW 0 0 32 VBottom 2
WINDOW 3 32 32 VTop 2
SYMATTR InstName C5
SYMATTR Value 3300p
SYMBOL cap 1440 1696 M90
WINDOW 0 0 32 VBottom 2
WINDOW 3 32 32 VTop 2
SYMATTR InstName C6
SYMATTR Value 100p
SYMBOL cap 1440 1792 M90
WINDOW 0 0 32 VBottom 2
WINDOW 3 32 32 VTop 2
SYMATTR InstName C7
SYMATTR Value 3300p
SYMBOL LTC7050 320 928 M0
SYMATTR InstName U2
SYMBOL ind 0 1824 M270
WINDOW 0 32 56 VTop 2
WINDOW 3 5 56 VBottom 2
SYMATTR InstName L3
SYMATTR Value 0.2µ
SYMATTR SpiceLine Rser=20m
SYMBOL ind 0 2112 M270
WINDOW 0 32 56 VTop 2
WINDOW 3 5 56 VBottom 2
SYMATTR InstName L4
SYMATTR Value 0.2µ
SYMATTR SpiceLine Rser=20m
SYMBOL res 688 2256 R270
WINDOW 0 32 56 VTop 2
WINDOW 3 0 56 VBottom 2
SYMATTR InstName R8
SYMATTR Value 499
SYMBOL res 688 2384 R270
WINDOW 0 32 56 VTop 2
WINDOW 3 0 56 VBottom 2
SYMATTR InstName R9
SYMATTR Value 499
SYMBOL LTC7050 320 2096 M0
SYMATTR InstName U3
SYMBOL ind 2592 656 R270
WINDOW 0 32 56 VTop 2
WINDOW 3 5 56 VBottom 2
SYMATTR InstName L5
SYMATTR Value 0.2µ
SYMATTR SpiceLine Rser=20m
SYMBOL cap 2800 656 R0
WINDOW 3 40 52 Left 2
WINDOW 0 39 8 Left 2
WINDOW 123 40 77 Left 2
SYMATTR Value 220µ
SYMATTR InstName C8
SYMATTR Value2 m=7
SYMATTR SpiceLine Rser=2.5m
SYMBOL res 2992 640 R0
SYMATTR InstName Rload1
SYMATTR Value 25m
SYMBOL ind 2592 944 R270
WINDOW 0 32 56 VTop 2
WINDOW 3 5 56 VBottom 2
SYMATTR InstName L6
SYMATTR Value 0.2µ
SYMATTR SpiceLine Rser=20m
SYMBOL LTC7050 2288 928 R0
SYMATTR InstName U4
SYMBOL ind 2592 1824 R270
WINDOW 0 32 56 VTop 2
WINDOW 3 5 56 VBottom 2
SYMATTR InstName L7
SYMATTR Value 0.2µ
SYMATTR SpiceLine Rser=20m
SYMBOL ind 2592 2112 R270
WINDOW 0 32 56 VTop 2
WINDOW 3 5 56 VBottom 2
SYMATTR InstName L8
SYMATTR Value 0.2µ
SYMATTR SpiceLine Rser=20m
SYMBOL res 1872 1248 R90
WINDOW 0 0 56 VBottom 2
WINDOW 3 32 56 VTop 2
SYMATTR InstName R11
SYMATTR Value 499
SYMBOL res 1888 2032 R90
WINDOW 0 0 56 VBottom 2
WINDOW 3 32 56 VTop 2
SYMATTR InstName R12
SYMATTR Value 499
SYMBOL res 1888 2224 R90
WINDOW 0 0 56 VBottom 2
WINDOW 3 32 56 VTop 2
SYMATTR InstName R13
SYMATTR Value 499
SYMBOL res 1888 2352 R90
WINDOW 0 0 56 VBottom 2
WINDOW 3 32 56 VTop 2
SYMATTR InstName R14
SYMATTR Value 499
SYMBOL res 1552 1008 R90
WINDOW 0 0 56 VBottom 2
WINDOW 3 32 56 VTop 2
SYMATTR InstName R15
SYMATTR Value 10K
SYMBOL voltage 320 336 R0
SYMATTR InstName V2
SYMATTR Value 6
SYMBOL res 1552 816 R90
WINDOW 0 0 56 VBottom 2
WINDOW 3 32 56 VTop 2
SYMATTR InstName R7
SYMATTR Value 100K
SYMBOL res 864 1520 R0
SYMATTR InstName R16
SYMATTR Value 42.2K
SYMBOL res 864 1616 R0
SYMATTR InstName R17
SYMATTR Value 28K
SYMBOL res 1600 1520 R0
SYMATTR InstName R18
SYMATTR Value 97.6K
SYMBOL res 1600 1616 R0
SYMATTR InstName R19
SYMATTR Value 28K
SYMBOL LTC3888-1 1264 1472 R0
SYMATTR InstName U1
SYMATTR SpiceLine2 Toff_Delay1=0 Rith0=5K Rith1=5K OC_Limit0=50 OC_Limit1=50 Ton_Min=45n VOUT_UV_Fault_Limit0=2.2 VOUT_UV_Fault_Limit1=2.8 VOUT_OV_Fault_Limit0=2.6 VOUT_OV_Fault_Limit1=3.1 Iout_Cal_Gain=5m Slave0=0 Slave1=0
SYMATTR SpiceLine Frequency_Switch=500 Vout0=2.5 Vout1=3 PWM_config=3 GM0=3.02m GM1=3.02m Vout_Trans_Rate0=7.5 Vout_Trans_Rate1=9 Vout_Scale_Loop0=2.507 Vout_Scale_Loop1=4.487 Ton_Delay0=0 Ton_Delay1=0 Toff_Delay0=0
SYMBOL cap -368 656 R0
WINDOW 3 40 52 Left 2
WINDOW 0 39 8 Left 2
WINDOW 123 40 77 Left 2
SYMATTR Value 220µ
SYMATTR InstName C2
SYMATTR Value2 m=7
SYMATTR SpiceLine Rser=2.5m
TEXT 2824 1064 Left 2 ;*************** READ ME **********************************************************************\n \nThis model does not cover the PMBUS and SPI functions of this IC.\nTherefore, many things controlled by the PMBUS are configured by CTRL + right click on the IC.\nShare_CLK is NOT modelled. The SYNC pin can only be used as an input and\nit is grounded when it is not used. CLK_OUT pin is provided to allow clock out function.\nResistor setting pins like Vout_CFG are not modeled.\nVout and PWM_config must be set by CTRL by right-clicking on the IC.\n \nFrequency_Switch sets the frequency in kHz between 250 and 1000.\nPWM_config controls the phasing and master/slave configuration of the 8 channels.\nA decimal number is used for the 3-bit binary number. The description starts on page 72 of the datasheet.\n \n# (PWM0: PWM1)\n7 (7 phase: 1 Phase)\n6 (6 phase: 2 Phase)\n5 (6 phase: 1 phase)\n4 (5 phase: 3 phase)\n3 (4 phase: 4 phase)\n2 (4 phase: 3 phase)\n1 (4 phase: 2 phase)\n0 (3 phase: 3 phase)\n \nVout0 and Vout1 program the output voltage in a range from 0.3 to 3.45V\nVout_trans_rate0 and Vout_trans_rate1 program the rate of movement of VOUT as the part is starting or margining (V/ms).\nGM0 and GM1 program the gain the Error Amplifier in range from 1 to 5.73mS\nIout_Cal_Gain should match the voltage gain of the chosen current sense (V/A)\nRith0 and Rith1 program the compensation resistor in series \n                with Cithr on the output of the error amplifier in a range from 1k to 62k ohm\nTon_Min=45n programs the minimum on time of the PWM outputs\n \nOC_Limit0 and OC_Limit1 program the peak current limit of the each phase used for that converter. \n \nTon_Delay0 and Ton_Delay1 set the delay from when the RUN pin goes high until the soft-start begins\nToff_Delay0 and Toff_Delay1 set the delay from when the RUN pin goes low until the turn-off ramp begins\n \nVOUT_UV_Fault_Limit0 and VOUT_UV_Fault_Limit1 program the undervoltage fault limit for the Pgood output\nVOUT_OV_Fault_Limit0 and VOUT_OV_Fault_Limit1 program the overvoltage fault limit for the Pgood output\n \nSlave0 and Slave1 set slave channel. 0 disable,1 enable. If enabled the error amplifier is open circuit
TEXT 2824 896 Left 2 !.tran 1m startup
