Version 4
SHEET 1 984 700
WIRE 192 64 96 64
WIRE 352 64 192 64
WIRE 96 80 96 64
WIRE 352 80 352 64
WIRE 192 144 192 64
WIRE 208 144 192 144
WIRE 512 144 496 144
WIRE 624 144 592 144
WIRE 672 144 624 144
WIRE 752 144 672 144
WIRE 672 160 672 144
WIRE 752 160 752 144
WIRE 96 176 96 160
WIRE 672 256 672 224
WIRE 752 256 752 240
WIRE 624 304 624 144
WIRE 624 304 496 304
WIRE 352 384 352 368
FLAG 96 176 0
FLAG 352 384 0
FLAG 672 256 0
FLAG 752 256 0
FLAG 752 144 OUT
FLAG 96 64 IN
SYMBOL VOLTAGE 96 64 R0
SYMATTR InstName V1
SYMATTR Value 5
SYMBOL polcap 656 160 R0
SYMATTR InstName C1
SYMATTR Value 22µ
SYMBOL ind 496 160 R270
WINDOW 0 32 56 VTop 2
WINDOW 3 5 56 VBottom 2
SYMATTR InstName L1
SYMATTR Value 4.7µ
SYMBOL RES 736 144 R0
SYMATTR InstName Rload
SYMATTR Value 5
SYMBOL PowerProducts\\LTC3406B-1.5 352 224 R0
SYMATTR InstName U1
TEXT 584 376 Left 2 !.tran 500u startup
