Version 4
SHEET 1 2652 1736
WIRE 1392 1248 1360 1248
WIRE 1488 1248 1392 1248
WIRE 1712 1248 1488 1248
WIRE 1360 1264 1360 1248
WIRE 1488 1264 1488 1248
WIRE 1712 1296 1712 1248
WIRE 1360 1360 1360 1344
WIRE 1488 1360 1488 1344
WIRE 1488 1360 1424 1360
WIRE 1552 1360 1488 1360
WIRE 1904 1360 1872 1360
WIRE 2016 1360 1984 1360
WIRE 1424 1376 1424 1360
WIRE 1424 1456 1424 1440
WIRE 1488 1472 1488 1360
WIRE 1552 1472 1488 1472
WIRE 1904 1472 1872 1472
WIRE 2016 1472 2016 1360
WIRE 2016 1472 1984 1472
WIRE 2128 1472 2016 1472
WIRE 2224 1472 2128 1472
WIRE 2272 1472 2224 1472
WIRE 2320 1472 2272 1472
WIRE 2016 1488 2016 1472
WIRE 2128 1488 2128 1472
WIRE 2224 1488 2224 1472
WIRE 2320 1488 2320 1472
WIRE 1488 1584 1488 1472
WIRE 1552 1584 1488 1584
WIRE 2016 1584 2016 1568
WIRE 2016 1584 1872 1584
WIRE 2128 1584 2128 1552
WIRE 2128 1584 2016 1584
WIRE 2224 1584 2224 1552
WIRE 2320 1584 2320 1568
WIRE 2016 1600 2016 1584
WIRE 1648 1680 1648 1664
WIRE 1776 1680 1776 1664
WIRE 2016 1696 2016 1680
FLAG 1776 1680 0
FLAG 1648 1680 0
FLAG 1360 1360 0
FLAG 2320 1584 0
FLAG 2016 1696 0
FLAG 2224 1584 0
FLAG 1392 1248 IN
FLAG 2272 1472 OUT
FLAG 1424 1456 0
SYMBOL ind 1888 1488 R270
WINDOW 0 32 56 VTop 2
WINDOW 3 5 56 VBottom 2
SYMATTR InstName L1
SYMATTR Value 330n
SYMATTR SpiceLine Rser=2m
SYMBOL RES 2000 1472 R0
SYMATTR InstName R1
SYMATTR Value 140K
SYMBOL VOLTAGE 1360 1248 R0
WINDOW 123 0 0 Left 0
WINDOW 39 0 0 Left 0
SYMATTR InstName V1
SYMATTR Value 5
SYMBOL res 2000 1584 R0
SYMATTR InstName R2
SYMATTR Value 100K
SYMBOL cap 2208 1488 R0
WINDOW 123 24 84 Left 2
SYMATTR Value2 X3
SYMATTR InstName C1
SYMATTR Value 22µ
SYMBOL res 2000 1344 R90
WINDOW 0 0 56 VBottom 2
WINDOW 3 32 56 VTop 2
SYMATTR InstName R4
SYMATTR Value 500K
SYMBOL cap 2112 1488 R0
SYMATTR InstName C3
SYMATTR Value 10p
SYMBOL res 2304 1472 R0
SYMATTR InstName Rload
SYMATTR Value 0.3
SYMBOL cap 1408 1376 R0
SYMATTR InstName C2
SYMATTR Value 1µ
SYMBOL res 1472 1248 R0
SYMATTR InstName R3
SYMATTR Value 10
SYMBOL LTC3303A-05 1712 1456 R0
SYMATTR InstName U1
TEXT 2200 1696 Left 2 !.tran 1.5m startup
