Version 4
SHEET 1 1208 680
WIRE -96 -288 -192 -288
WIRE 528 -288 -96 -288
WIRE -192 -272 -192 -288
WIRE 96 -240 80 -240
WIRE 208 -240 160 -240
WIRE 368 -240 208 -240
WIRE 528 -224 528 -288
WIRE 368 -208 368 -240
WIRE 208 -192 208 -240
WIRE -192 -176 -192 -192
WIRE -96 -128 -96 -288
WIRE 16 -128 -96 -128
WIRE 80 -128 16 -128
WIRE 368 -128 368 -144
WIRE 368 -128 336 -128
WIRE 528 -128 528 -144
WIRE 528 -128 432 -128
WIRE 16 -112 16 -128
WIRE 528 -112 528 -128
WIRE 80 -32 16 -32
WIRE 480 -32 336 -32
WIRE -16 64 -32 64
WIRE 80 64 64 64
WIRE 432 64 432 -128
WIRE 432 64 336 64
WIRE 368 80 368 -128
WIRE -16 160 -32 160
WIRE 80 160 48 160
WIRE 368 160 368 144
WIRE 368 160 336 160
WIRE 528 160 528 -16
WIRE 528 160 368 160
WIRE 608 160 528 160
WIRE 784 160 688 160
WIRE 912 160 784 160
WIRE 1008 160 912 160
WIRE 1120 160 1008 160
WIRE 528 176 528 160
WIRE 1008 176 1008 160
WIRE 1120 176 1120 160
WIRE 784 192 784 160
WIRE 912 240 912 160
WIRE -16 256 -32 256
WIRE 80 256 64 256
WIRE 480 256 336 256
WIRE 1008 272 1008 240
WIRE 1120 272 1120 256
WIRE 528 304 528 272
WIRE -96 336 -96 -128
WIRE 720 352 336 352
WIRE 784 352 784 336
WIRE 784 352 720 352
WIRE 912 352 912 320
WIRE 912 352 784 352
WIRE 912 368 912 352
WIRE -96 448 -96 416
WIRE 80 448 -96 448
WIRE 400 448 336 448
WIRE 480 448 400 448
WIRE 624 448 560 448
WIRE 720 448 720 352
WIRE 720 448 688 448
WIRE -96 464 -96 448
WIRE 912 464 912 448
WIRE 160 528 160 512
WIRE 256 528 256 512
WIRE 400 544 400 448
WIRE 528 544 400 544
WIRE 720 544 720 448
WIRE 720 544 592 544
WIRE -96 560 -96 544
FLAG -192 -176 0
FLAG 528 304 0
FLAG 1008 272 0
FLAG 80 -240 0
FLAG -32 64 0
FLAG -32 160 0
FLAG -32 256 0
FLAG 160 528 0
FLAG 256 528 0
FLAG -96 560 0
FLAG 912 464 0
FLAG 1120 272 0
FLAG 1120 160 OUT
FLAG -192 -288 IN
SYMBOL PowerProducts\\LTC3775 208 160 R0
SYMATTR InstName U1
SYMBOL voltage -192 -288 R0
SYMATTR InstName V1
SYMATTR Value 12
SYMBOL res 0 -128 R0
SYMATTR InstName R1
SYMATTR Value 464
SYMBOL nmos 480 -112 R0
SYMATTR InstName M1
SYMATTR Value Si4840DY
SYMBOL nmos 480 176 R0
SYMATTR InstName M2
SYMATTR Value Si4840DY
SYMBOL ind 592 176 R270
WINDOW 0 32 56 VTop 2
WINDOW 3 5 56 VBottom 2
SYMATTR InstName L1
SYMATTR Value 1.2µ
SYMATTR SpiceLine Rser=2m Rpar=5K
SYMBOL cap 352 80 R0
SYMATTR InstName C1
SYMATTR Value .1µ
SYMBOL schottky 352 -208 R0
WINDOW 3 23 67 Left 2
SYMATTR Value CMDSH2-3
SYMATTR InstName D1
SYMATTR Description Diode
SYMATTR Type diode
SYMBOL res 512 -240 R0
SYMATTR InstName R2
SYMATTR Value 3m
SYMBOL polcap 992 176 R0
WINDOW 3 37 41 Left 2
WINDOW 123 35 73 Left 2
SYMATTR Value 330µ
SYMATTR Value2 x3
SYMATTR InstName C2
SYMATTR Description Capacitor
SYMATTR Type cap
SYMATTR SpiceLine V=4 Irms=2.32 Rser=0.027 Lser=0 mfg="Sanyo OSCON" pn="4SVPC330M" type="Al electrolytic"
SYMBOL cap 160 -256 R90
WINDOW 0 0 32 VBottom 2
WINDOW 3 32 32 VTop 2
SYMATTR InstName C3
SYMATTR Value 4.7µ
SYMBOL res 80 48 R90
WINDOW 0 0 56 VBottom 2
WINDOW 3 32 56 VTop 2
SYMATTR InstName R3
SYMATTR Value 133K
SYMBOL cap 48 144 R90
WINDOW 0 0 32 VBottom 2
WINDOW 3 32 32 VTop 2
SYMATTR InstName C4
SYMATTR Value 1n
SYMBOL res 80 240 R90
WINDOW 0 0 56 VBottom 2
WINDOW 3 32 56 VTop 2
SYMATTR InstName R4
SYMATTR Value 39.2K
SYMBOL res -112 320 R0
SYMATTR InstName R5
SYMATTR Value 43.2K
SYMBOL res -112 448 R0
SYMATTR InstName R6
SYMATTR Value 10K
SYMBOL res 896 224 R0
SYMATTR InstName R7
SYMATTR Value 10K
SYMBOL res 896 352 R0
SYMATTR InstName R8
SYMATTR Value 3.16K
SYMBOL res 1104 160 R0
SYMATTR InstName Rload
SYMATTR Value .25
SYMBOL cap 768 192 R0
WINDOW 3 41 31 Left 2
WINDOW 39 21 62 Left 2
SYMATTR Value 1500p
SYMATTR InstName C6
SYMBOL res 768 240 R0
SYMATTR InstName R9
SYMATTR Value 390
SYMBOL cap 688 432 R90
WINDOW 0 0 32 VBottom 2
WINDOW 3 32 32 VTop 2
SYMATTR InstName C8
SYMATTR Value 2200p
SYMBOL res 576 432 R90
WINDOW 0 0 56 VBottom 2
WINDOW 3 32 56 VTop 2
SYMATTR InstName R10
SYMATTR Value 15K
SYMBOL cap 592 528 R90
WINDOW 0 0 32 VBottom 2
WINDOW 3 32 32 VTop 2
SYMATTR InstName C7
SYMATTR Value 330p
TEXT 864 528 Left 2 !.tran 1m startup
