Version 4
SHEET 1 880 680
WIRE 208 -208 144 -208
WIRE 336 -208 288 -208
WIRE 144 -160 144 -208
WIRE 336 -160 336 -208
WIRE -112 -96 -208 -96
WIRE -48 -96 -112 -96
WIRE -16 -96 -48 -96
WIRE 528 -96 496 -96
WIRE 608 -96 592 -96
WIRE -208 -80 -208 -96
WIRE -112 -64 -112 -96
WIRE -48 0 -48 -96
WIRE -16 0 -48 0
WIRE 544 0 496 0
WIRE -208 16 -208 0
WIRE -112 16 -112 0
WIRE -48 96 -48 0
WIRE -16 96 -48 96
WIRE 512 96 496 96
WIRE -48 192 -192 192
WIRE -16 192 -48 192
WIRE 640 192 496 192
WIRE 752 192 640 192
WIRE -192 208 -192 192
WIRE 640 208 640 192
WIRE 752 208 752 192
WIRE -48 288 -48 192
WIRE -16 288 -48 288
WIRE -192 304 -192 288
WIRE 640 304 640 272
WIRE 752 304 752 288
WIRE -48 384 -48 288
WIRE -16 384 -48 384
WIRE 544 384 544 0
WIRE 544 384 496 384
WIRE 544 480 544 384
WIRE 544 480 496 480
WIRE 544 576 544 480
WIRE 544 576 496 576
WIRE 240 640 240 624
FLAG 240 640 0
FLAG 608 -96 0
FLAG 640 304 0
FLAG 752 304 0
FLAG -112 16 0
FLAG 512 96 0
FLAG -208 16 0
FLAG -192 304 0
FLAG 752 192 OUT
FLAG -192 192 IN
SYMBOL PowerProducts\\LTC3106 240 240 R0
SYMATTR InstName U1
SYMBOL ind 192 -192 R270
WINDOW 0 32 56 VTop 2
WINDOW 3 5 56 VBottom 2
SYMATTR InstName L1
SYMATTR Value 10µ
SYMATTR SpiceLine Rser=5m
SYMBOL cap 528 -80 R270
WINDOW 0 32 32 VTop 2
WINDOW 3 0 32 VBottom 2
SYMATTR InstName C1
SYMATTR Value 2.2µ
SYMBOL cap 624 208 R0
SYMATTR InstName C2
SYMATTR Value 47µ
SYMATTR SpiceLine Rser=10m
SYMBOL cap -128 -64 R0
SYMATTR InstName C4
SYMATTR Value 1µ
SYMBOL res 736 192 R0
SYMATTR InstName R1
SYMATTR Value 66
SYMBOL voltage -192 192 R0
SYMATTR InstName V1
SYMATTR Value 3.5
SYMBOL Misc\\battery -208 -96 R0
WINDOW 123 0 0 Left 2
WINDOW 39 0 0 Left 2
SYMATTR InstName V3
SYMATTR Value 3.6
TEXT 576 632 Left 2 !.tran .5m startup
