Version 4
SHEET 1 2336 1256
WIRE 1424 -144 1104 -144
WIRE 1008 -80 992 -80
WIRE 1104 -80 1104 -144
WIRE 1104 -80 1088 -80
WIRE 1136 -80 1104 -80
WIRE 1424 -80 1424 -144
WIRE 1424 -80 1392 -80
WIRE 1136 0 736 0
WIRE 1424 0 1392 0
WIRE 736 16 736 0
WIRE 1136 80 1104 80
WIRE 1424 80 1392 80
WIRE 736 112 736 96
FLAG 1104 80 0
FLAG 992 -80 0
FLAG 1424 80 0
FLAG 736 112 0
SYMBOL PowerProducts\\LTC4440 1264 0 R0
SYMATTR InstName U1
SYMBOL voltage 1104 -80 R90
WINDOW 0 -32 56 VBottom 2
WINDOW 3 32 56 VTop 2
SYMATTR InstName V1
SYMATTR Value 8
SYMBOL voltage 736 0 R0
WINDOW 123 0 0 Left 2
WINDOW 39 0 0 Left 2
SYMATTR InstName V2
SYMATTR Value PULSE(0 8 0 1n 1n 1u 2u)
TEXT 1304 176 Left 2 !.tran 50u
