Version 4
SHEET 1 928 680
WIRE 416 -48 -320 -48
WIRE -416 64 -448 64
WIRE -320 64 -320 -48
WIRE -320 64 -416 64
WIRE -224 64 -320 64
WIRE -80 64 -128 64
WIRE 80 64 -80 64
WIRE 368 64 336 64
WIRE 496 64 368 64
WIRE 592 64 496 64
WIRE 496 80 496 64
WIRE 592 80 592 64
WIRE -448 96 -448 64
WIRE -320 96 -320 64
WIRE -80 96 -80 64
WIRE 80 128 32 128
WIRE 416 128 416 -48
WIRE 416 128 336 128
WIRE 496 176 496 144
WIRE 592 176 592 160
WIRE -448 192 -448 176
WIRE -80 192 -80 160
WIRE 32 192 32 128
WIRE 80 192 32 192
WIRE 416 192 336 192
WIRE -320 224 -320 160
WIRE 32 256 32 192
WIRE 80 256 32 256
WIRE 464 256 336 256
WIRE 592 256 544 256
WIRE 32 272 32 256
WIRE 592 272 592 256
WIRE 80 320 -112 320
WIRE 368 320 368 64
WIRE 368 320 336 320
WIRE -112 352 -112 320
WIRE 592 368 592 352
WIRE -112 448 -112 432
WIRE -208 496 -208 112
WIRE 416 496 416 192
WIRE 416 496 -208 496
FLAG -448 192 0
FLAG -112 448 0
FLAG -416 64 IN
FLAG 496 176 0
FLAG 592 176 0
FLAG 592 368 0
FLAG 592 64 OUT
FLAG -320 224 0
FLAG -80 192 0
FLAG 32 272 0
SYMBOL voltage -448 80 R0
WINDOW 0 17 15 Left 2
WINDOW 3 32 90 Left 2
WINDOW 123 0 0 Left 2
WINDOW 39 0 0 Left 2
SYMATTR InstName WALL
SYMATTR Value 5
SYMBOL voltage -112 336 R0
WINDOW 0 17 15 Left 2
WINDOW 3 21 97 Left 2
WINDOW 123 0 0 Left 2
WINDOW 39 0 0 Left 2
SYMATTR InstName BAT
SYMATTR Value 3.6
SYMBOL res 576 64 R0
SYMATTR InstName LOAD
SYMATTR Value 10
SYMBOL voltage 592 256 R0
WINDOW 123 0 0 Left 2
WINDOW 39 0 0 Left 2
SYMATTR InstName VCC
SYMATTR Value 5
SYMBOL cap 480 80 R0
WINDOW 0 24 16 Left 2
SYMATTR InstName C3
SYMATTR Value 4.7µ
SYMBOL res 560 240 R90
WINDOW 0 0 56 VBottom 2
WINDOW 3 32 56 VTop 2
SYMATTR InstName R1
SYMATTR Value 470K
SYMBOL cap -336 96 R0
WINDOW 39 24 84 Left 2
SYMATTR SpiceLine Rser=1
SYMATTR InstName C1
SYMATTR Value 0.1µ
SYMBOL cap -96 96 R0
SYMATTR InstName C2
SYMATTR Value 10µ
SYMBOL SpecialFunctions\\LTC4413-2 208 192 R0
SYMATTR InstName U1
SYMBOL pmos -128 112 M270
WINDOW 0 92 99 VLeft 2
WINDOW 3 67 100 VLeft 2
SYMATTR InstName M1
SYMATTR Value IRLML6402
TEXT -184 552 Left 2 !.tran 100m startup
