Version 4
SHEET 1 880 680
WIRE -48 -208 -80 -208
WIRE 64 -208 -48 -208
WIRE 128 -208 64 -208
WIRE 464 -208 256 -208
WIRE -80 -176 -80 -208
WIRE 128 -176 128 -208
WIRE 256 -176 256 -208
WIRE 464 -176 464 -208
WIRE 64 -112 64 -208
WIRE 80 -112 64 -112
WIRE 320 -112 304 -112
WIRE 416 -112 384 -112
WIRE -80 -80 -80 -96
WIRE 464 -80 464 -96
WIRE 64 0 64 -112
WIRE 80 0 64 0
WIRE 80 224 -48 224
WIRE 400 224 304 224
WIRE 400 240 400 224
WIRE -48 256 -48 224
WIRE 400 320 400 304
WIRE 80 336 32 336
WIRE 352 336 304 336
WIRE -48 352 -48 336
WIRE 352 352 352 336
WIRE 32 368 32 336
WIRE 192 416 192 400
WIRE 352 432 352 416
WIRE 32 464 32 448
FLAG -80 -80 0
FLAG 464 -80 0
FLAG 192 416 0
FLAG 416 -112 0
FLAG 32 464 0
FLAG 352 432 0
FLAG -48 352 0
FLAG 400 320 0
FLAG -48 -208 IN
SYMBOL voltage -80 -192 R0
SYMATTR InstName V1
SYMATTR Value 1.8
SYMBOL voltage 464 -192 R0
SYMATTR InstName V2
SYMATTR Value 3.3
SYMBOL cap 320 -96 R270
WINDOW 0 32 32 VTop 2
WINDOW 3 0 32 VBottom 2
SYMATTR InstName C1
SYMATTR Value 1µ
SYMBOL voltage 32 352 M0
SYMATTR InstName V3
SYMATTR Value PULSE(0 1.8 1m 10u 10u 100u 200u)
SYMBOL cap 336 352 R0
SYMATTR InstName C2
SYMATTR Value 30p
SYMBOL voltage -48 240 M0
WINDOW 123 0 0 Left 0
WINDOW 39 0 0 Left 0
SYMATTR InstName V4
SYMATTR Value PULSE(0 1.8 1m 10n 10n 100n 200n)
SYMBOL cap 384 240 R0
SYMATTR InstName C3
SYMATTR Value 30p
SYMBOL LTC4555 192 112 R0
SYMATTR InstName U2
TEXT 144 456 Left 2 !.tran 5m startup
