Version 4
SHEET 1 2368 740
WIRE 320 128 16 128
WIRE 832 128 576 128
WIRE 16 160 16 128
WIRE 256 192 96 192
WIRE 320 192 256 192
WIRE 736 192 576 192
WIRE 832 192 832 128
WIRE 96 208 96 192
WIRE 736 224 736 192
WIRE 320 256 208 256
WIRE 608 256 576 256
WIRE 256 288 256 192
WIRE 96 304 96 288
WIRE 208 320 208 256
WIRE 608 320 608 256
WIRE 736 320 736 304
WIRE 16 368 16 240
WIRE 128 368 16 368
WIRE 256 368 256 352
WIRE 256 368 224 368
WIRE 448 368 448 304
WIRE 448 368 256 368
WIRE 544 368 448 368
WIRE 592 368 544 368
WIRE 832 368 832 272
WIRE 832 368 688 368
WIRE 16 384 16 368
WIRE 832 400 832 368
WIRE 544 464 544 368
WIRE 640 464 544 464
WIRE 16 480 16 464
WIRE 544 496 544 464
WIRE 640 496 640 464
WIRE 832 496 832 480
WIRE 544 592 544 560
WIRE 640 592 640 576
FLAG 96 304 0
FLAG 736 320 0
FLAG 16 480 0
FLAG 832 496 0
FLAG 544 592 0
FLAG 640 592 0
FLAG 640 464 OUT
FLAG 256 192 IN
SYMBOL PowerProducts\\LTC4354 448 208 R0
SYMATTR InstName U1
SYMBOL res 80 304 M180
WINDOW 0 36 76 Left 2
WINDOW 3 36 40 Left 2
SYMATTR InstName R1
SYMATTR Value 12K
SYMBOL res 0 144 R0
SYMATTR InstName R2
SYMATTR Value 2K
SYMBOL nmos 128 320 M90
WINDOW 0 3 49 VBottom 2
WINDOW 3 53 47 VTop 2
SYMATTR InstName Q1
SYMATTR Value Si4486EY
SYMBOL nmos 688 320 R90
WINDOW 0 5 47 VBottom 2
WINDOW 3 51 46 VTop 2
SYMATTR InstName Q2
SYMATTR Value Si4486EY
SYMBOL res 816 176 R0
SYMATTR InstName R3
SYMATTR Value 2K
SYMBOL res 720 320 M180
WINDOW 0 36 76 Left 2
WINDOW 3 36 40 Left 2
SYMATTR InstName R4
SYMATTR Value 33K
SYMBOL cap 240 288 R0
SYMATTR InstName C1
SYMATTR Value 1µ
SYMBOL voltage 16 480 R180
WINDOW 123 0 0 Left 2
WINDOW 39 0 0 Left 2
SYMATTR InstName V1
SYMATTR Value 48
SYMBOL voltage 832 496 M180
WINDOW 3 33 80 Left 2
WINDOW 123 0 0 Left 2
WINDOW 39 0 0 Left 2
SYMATTR Value PULSE(0 55 10m 100u 100u 10m 100m)
SYMATTR InstName V2
SYMBOL cap 528 560 M180
WINDOW 0 24 56 Left 2
WINDOW 3 24 8 Left 2
SYMATTR InstName C2
SYMATTR Value 100µ
SYMBOL res 624 592 M180
WINDOW 0 36 76 Left 2
WINDOW 3 36 40 Left 2
SYMATTR InstName R5
SYMATTR Value 10
TEXT 344 64 Left 2 !.tran 100m startup
