Version 4
SHEET 1 1864 1572
WIRE -256 -80 -464 -80
WIRE -16 -80 -256 -80
WIRE 80 -80 -16 -80
WIRE 288 -80 176 -80
WIRE 320 -80 288 -80
WIRE 416 -80 400 -80
WIRE 544 -80 416 -80
WIRE 672 -80 544 -80
WIRE 160 -16 160 -32
WIRE 672 -16 672 -80
WIRE 544 0 544 -80
WIRE 160 80 160 64
WIRE 208 80 160 80
WIRE 544 128 544 64
WIRE 672 128 672 64
WIRE -16 144 -16 -80
WIRE -256 192 -256 -80
WIRE -16 256 -16 224
WIRE 160 256 160 80
WIRE 288 256 288 -80
WIRE 416 256 416 -80
WIRE -256 352 -256 272
WIRE -256 352 -368 352
WIRE -128 352 -256 352
WIRE -80 352 -128 352
WIRE -368 368 -368 352
WIRE -256 368 -256 352
WIRE -368 448 -368 432
WIRE -256 448 -256 432
WIRE -128 448 -128 352
WIRE -80 448 -128 448
WIRE 496 448 480 448
WIRE 128 528 128 512
WIRE 320 528 320 512
WIRE -464 576 -464 -80
WIRE 320 608 320 592
WIRE -464 672 -464 656
FLAG -464 672 0
FLAG 320 608 0
FLAG 128 528 0
FLAG -256 448 0
FLAG -464 -80 IN
FLAG 208 224 0
FLAG 496 448 0
FLAG 672 128 0
FLAG 544 128 0
FLAG -368 448 0
FLAG 672 -80 OUT
SYMBOL res 144 -32 R0
SYMATTR InstName R2
SYMATTR Value 10
SYMBOL res 304 -64 R270
WINDOW 0 32 56 VTop 2
WINDOW 3 0 56 VBottom 2
SYMATTR InstName R1
SYMATTR Value 10m
SYMBOL nmos 80 -32 R270
WINDOW 0 57 42 VTop 2
WINDOW 3 -14 72 VLeft 2
SYMATTR InstName Q1
SYMATTR Value FDB33N25
SYMBOL cap 304 528 R0
SYMATTR InstName C3
SYMATTR Value 8.2µ
SYMBOL voltage -464 560 R0
WINDOW 123 24 138 Left 2
WINDOW 39 24 117 Left 2
SYMATTR Value PWL(0 0 20u 0 50u 12 1 12 1.01 250 1.2 250 1.21 12)
SYMATTR InstName V1
SYMBOL cap -384 368 R0
SYMATTR InstName C1
SYMATTR Value 0.1µ
SYMBOL cap 192 80 R0
WINDOW 3 39 35 Left 2
WINDOW 0 39 8 Left 2
SYMATTR Value 47n
SYMATTR InstName C2
SYMBOL res 192 128 R0
WINDOW 3 39 67 Left 2
SYMATTR Value 33
SYMATTR InstName R5
SYMBOL res -272 176 R0
SYMATTR InstName R3
SYMATTR Value 10K
SYMBOL res -32 128 R0
SYMATTR InstName R4
SYMATTR Value 249K
SYMBOL LTC4380-3 208 384 R0
SYMATTR InstName U2
SYMBOL res 656 -32 R0
SYMATTR InstName Rload
SYMATTR Value 12
SYMBOL cap 528 0 R0
SYMATTR InstName C4
SYMATTR Value 22µ
SYMBOL zener -272 432 M180
WINDOW 0 24 64 Left 2
WINDOW 3 24 0 Left 2
SYMATTR InstName D1
SYMATTR Value 1N5371B
TEXT 424 752 Left 2 !.tran 3
