Version 4
SHEET 1 4472 1028
WIRE -2800 -528 -2832 -528
WIRE -2688 -528 -2720 -528
WIRE -2544 -528 -2688 -528
WIRE -2384 -528 -2464 -528
WIRE -2592 -400 -2592 -416
WIRE -2688 -352 -2688 -528
WIRE -2624 -352 -2688 -352
WIRE -2384 -320 -2384 -528
WIRE -2384 -320 -2480 -320
WIRE -2352 -320 -2384 -320
WIRE -2624 -288 -2832 -288
WIRE -2592 -224 -2592 -240
WIRE -3200 -208 -3200 -256
WIRE -3024 -208 -3024 -256
WIRE -2832 -208 -2832 -288
WIRE -3200 -80 -3200 -128
WIRE -3024 -80 -3024 -128
WIRE -2832 -80 -2832 -128
FLAG -3200 -80 0
FLAG -3024 -80 0
FLAG -3200 -256 V+
FLAG -3024 -256 V-
FLAG -2592 -416 V+
FLAG -2592 -224 V-
FLAG -2832 -80 0
FLAG -2544 -240 V+
FLAG -2352 -320 Out
FLAG -2832 -288 In
FLAG -2832 -528 0
SYMBOL voltage -3200 -224 R0
SYMATTR InstName V1
SYMATTR Value 5
SYMBOL voltage -3024 -224 R0
SYMATTR InstName V2
SYMATTR Value -5
SYMBOL voltage -2832 -224 R0
WINDOW 123 24 44 Left 2
WINDOW 39 0 0 Left 2
SYMATTR InstName V3
SYMATTR Value PULSE(-75m 75m 100n 1n 1n 400n 800n)
SYMBOL LTC6226 -2592 -320 R0
SYMATTR InstName U2
SYMBOL res -2448 -544 R90
WINDOW 0 0 56 VBottom 2
WINDOW 3 32 56 VTop 2
SYMATTR InstName R1
SYMATTR Value 100
SYMBOL res -2704 -544 R90
WINDOW 0 0 56 VBottom 2
WINDOW 3 32 56 VTop 2
SYMATTR InstName R2
SYMATTR Value 11
TEXT -2392 -56 Left 2 !.tran 1u
