Version 4
SHEET 1 1064 680
WIRE 128 -144 -16 -144
WIRE 336 -144 192 -144
WIRE 736 -96 496 -96
WIRE -16 -48 -16 -144
WIRE -16 -48 -128 -48
WIRE 32 -48 -16 -48
WIRE 336 -48 336 -144
WIRE 336 -48 288 -48
WIRE 496 -48 496 -96
WIRE 736 -48 736 -96
WIRE -128 -16 -128 -48
WIRE 448 32 288 32
WIRE 336 48 336 -48
WIRE 736 48 736 32
WIRE -16 64 -16 -48
WIRE 32 64 -16 64
WIRE -128 80 -128 64
WIRE 336 128 336 112
WIRE 336 128 288 128
WIRE 496 128 496 48
WIRE 496 128 336 128
WIRE 592 128 496 128
WIRE 736 128 672 128
WIRE 832 128 736 128
WIRE 832 144 832 128
WIRE 496 160 496 128
WIRE 736 160 736 128
WIRE 32 240 -128 240
WIRE 448 240 288 240
WIRE 736 256 736 224
WIRE 832 256 832 224
WIRE -128 288 -128 240
WIRE 496 288 496 256
WIRE 160 304 160 288
WIRE -128 384 -128 368
FLAG 496 288 0
FLAG 736 256 0
FLAG 736 48 0
FLAG -128 80 0
FLAG -128 384 0
FLAG 832 128 OUT
FLAG 832 256 0
FLAG 736 -96 IN
FLAG 160 304 0
SYMBOL ind 576 144 R270
WINDOW 0 32 56 VTop 2
WINDOW 3 5 56 VBottom 2
SYMATTR InstName L1
SYMATTR Value 10µ
SYMBOL voltage -128 -32 R0
WINDOW 123 0 0 Left 0
WINDOW 39 0 0 Left 0
SYMATTR InstName V1
SYMATTR Value 10
SYMBOL cap 320 112 M180
WINDOW 0 24 56 Left 2
WINDOW 3 24 8 Left 2
SYMATTR InstName C1
SYMATTR Value 0.22µ
SYMBOL voltage 736 -64 R0
WINDOW 123 0 0 Left 0
WINDOW 39 0 0 Left 0
SYMATTR InstName V2
SYMATTR Value 40
SYMBOL cap 720 160 R0
SYMATTR InstName C2
SYMATTR Value 10µ
SYMBOL voltage -128 272 R0
WINDOW 123 0 0 Left 0
WINDOW 39 0 0 Left 0
SYMATTR InstName V3
SYMATTR Value PULSE(0 5 10u 1n 1n 1u 2u)
SYMBOL res 816 128 R0
SYMATTR InstName R1
SYMATTR Value 20
SYMBOL LTC7065 160 144 R0
SYMATTR InstName U1
SYMBOL nmos 448 -48 R0
SYMATTR InstName M1
SYMATTR Value BSC082N10LS
SYMBOL nmos 448 160 R0
SYMATTR InstName M2
SYMATTR Value BSC082N10LS
SYMBOL schottky 128 -160 M90
WINDOW 0 0 32 VBottom 2
WINDOW 3 32 32 VTop 2
SYMATTR InstName D1
SYMATTR Value MBRS1100
SYMATTR Description Diode
SYMATTR Type diode
TEXT 288 320 Left 2 !.tran 0.5m startup
