Version 4
SHEET 1 1364 1032
WIRE -272 -1824 -432 -1824
WIRE -192 -1824 -272 -1824
WIRE 112 -1824 -192 -1824
WIRE 672 -1824 112 -1824
WIRE -432 -1808 -432 -1824
WIRE 256 -1808 -112 -1808
WIRE 560 -1808 256 -1808
WIRE 592 -1808 560 -1808
WIRE -272 -1792 -272 -1824
WIRE -272 -1792 -304 -1792
WIRE 16 -1792 -272 -1792
WIRE 496 -1792 16 -1792
WIRE 592 -1792 592 -1808
WIRE 112 -1776 112 -1824
WIRE 256 -1776 256 -1808
WIRE -432 -1712 -432 -1728
WIRE 16 -1712 16 -1792
WIRE 32 -1712 16 -1712
WIRE 496 -1712 496 -1792
WIRE 496 -1712 480 -1712
WIRE 592 -1712 592 -1728
WIRE 560 -1632 560 -1808
WIRE 1360 -1632 560 -1632
WIRE -192 -1600 -192 -1824
WIRE 672 -1600 672 -1824
WIRE 32 -1520 -144 -1520
WIRE 624 -1520 480 -1520
WIRE -112 -1504 -112 -1808
WIRE 560 -1504 560 -1632
WIRE -112 -1424 -112 -1440
WIRE 32 -1424 -112 -1424
WIRE 560 -1424 560 -1440
WIRE 560 -1424 480 -1424
WIRE -112 -1408 -112 -1424
WIRE 560 -1408 560 -1424
WIRE -752 -1328 -864 -1328
WIRE -688 -1328 -752 -1328
WIRE -592 -1328 -688 -1328
WIRE -496 -1328 -592 -1328
WIRE -480 -1328 -496 -1328
WIRE -384 -1328 -400 -1328
WIRE -320 -1328 -384 -1328
WIRE -192 -1328 -192 -1504
WIRE -192 -1328 -240 -1328
WIRE -112 -1328 -112 -1344
WIRE -112 -1328 -192 -1328
WIRE 32 -1328 -112 -1328
WIRE 560 -1328 560 -1344
WIRE 560 -1328 480 -1328
WIRE 672 -1328 672 -1504
WIRE 672 -1328 560 -1328
WIRE 720 -1328 672 -1328
WIRE 864 -1328 800 -1328
WIRE 880 -1328 864 -1328
WIRE 976 -1328 960 -1328
WIRE 1024 -1328 976 -1328
WIRE 1120 -1328 1024 -1328
WIRE 1200 -1328 1120 -1328
WIRE 1248 -1328 1200 -1328
WIRE -864 -1312 -864 -1328
WIRE -192 -1312 -192 -1328
WIRE 672 -1312 672 -1328
WIRE 1248 -1312 1248 -1328
WIRE -688 -1296 -688 -1328
WIRE -592 -1296 -592 -1328
WIRE 1024 -1296 1024 -1328
WIRE 1120 -1296 1120 -1328
WIRE 32 -1232 -144 -1232
WIRE 624 -1232 480 -1232
WIRE -864 -1216 -864 -1232
WIRE -688 -1216 -688 -1232
WIRE -592 -1216 -592 -1232
WIRE 1024 -1216 1024 -1232
WIRE 1120 -1216 1120 -1232
WIRE 1248 -1216 1248 -1232
WIRE -192 -1200 -192 -1216
WIRE 672 -1200 672 -1216
WIRE -384 -1136 -384 -1328
WIRE -208 -1136 -384 -1136
WIRE -80 -1136 -128 -1136
WIRE 32 -1136 -80 -1136
WIRE 544 -1136 480 -1136
WIRE 864 -1136 864 -1328
WIRE 864 -1136 544 -1136
WIRE -80 -1120 -80 -1136
WIRE 544 -1120 544 -1136
WIRE -752 -1040 -752 -1328
WIRE -496 -1040 -496 -1328
WIRE -80 -1040 -80 -1056
WIRE -80 -1040 -496 -1040
WIRE 32 -1040 -80 -1040
WIRE 544 -1040 544 -1056
WIRE 544 -1040 480 -1040
WIRE 976 -1040 976 -1328
WIRE 976 -1040 544 -1040
WIRE 1200 -1040 1200 -1328
WIRE -752 -944 -752 -960
WIRE 32 -944 -752 -944
WIRE 1200 -944 1200 -960
WIRE 1200 -944 480 -944
WIRE -752 -928 -752 -944
WIRE 1200 -928 1200 -944
WIRE -112 -848 -160 -848
WIRE 32 -848 -48 -848
WIRE 544 -848 480 -848
WIRE 656 -848 608 -848
WIRE -752 -832 -752 -848
WIRE 1200 -832 1200 -848
WIRE -112 -752 -160 -752
WIRE 32 -752 -48 -752
WIRE 544 -752 480 -752
WIRE 656 -752 608 -752
WIRE 32 -656 -32 -656
WIRE 1360 -656 1360 -1632
WIRE 1360 -656 480 -656
WIRE -32 -608 -32 -656
WIRE 160 -576 160 -592
WIRE 352 -576 352 -592
FLAG -432 -1712 0
FLAG 160 -576 0
FLAG 352 -576 0
FLAG 672 -1200 0
FLAG 592 -1712 0
FLAG 1024 -1216 0
FLAG 1200 -832 0
FLAG 1248 -1216 0
FLAG 656 -848 0
FLAG 656 -752 0
FLAG -192 -1200 0
FLAG -592 -1216 0
FLAG -752 -832 0
FLAG -864 -1216 0
FLAG -160 -848 0
FLAG -160 -752 0
FLAG -432 -1824 IN
FLAG -304 -1792 RUN
FLAG 1248 -1328 OUT2
FLAG -864 -1328 OUT1
FLAG -688 -1216 0
FLAG 1120 -1216 0
FLAG -32 -608 0
SYMBOL voltage -432 -1824 R0
WINDOW 123 0 0 Left 0
WINDOW 39 0 0 Left 0
SYMATTR InstName V1
SYMATTR Value 12
SYMBOL nmos 624 -1600 R0
SYMATTR InstName Q1
SYMATTR Value BSC059N04LS6
SYMBOL nmos 624 -1312 R0
SYMATTR InstName Q2
SYMATTR Value BSC022N04LS6
SYMBOL schottky 544 -1504 R0
SYMATTR InstName D1
SYMATTR Value CMDSH-4E
SYMATTR Description Diode
SYMATTR Type diode
SYMBOL cap 576 -1792 R0
SYMATTR InstName C1
SYMATTR Value 4.7µ
SYMBOL cap 544 -1408 R0
SYMATTR InstName C2
SYMATTR Value .1µ
SYMBOL ind 704 -1312 R270
WINDOW 0 32 56 VTop 2
WINDOW 3 5 56 VBottom 2
SYMATTR InstName L1
SYMATTR Value 1.8µ
SYMATTR SpiceLine Rser=5.6m
SYMBOL res 864 -1312 R270
WINDOW 0 32 56 VTop 2
WINDOW 3 0 56 VBottom 2
SYMATTR InstName R1
SYMATTR Value 3m
SYMBOL cap 1008 -1296 R0
SYMATTR InstName C3
SYMATTR Value 330µ
SYMATTR SpiceLine Rser=15m
SYMBOL res 1184 -1056 R0
SYMATTR InstName R2
SYMATTR Value 357K
SYMBOL res 1184 -944 R0
SYMATTR InstName R3
SYMATTR Value 68.1K
SYMBOL cap 544 -832 R270
WINDOW 0 32 32 VTop 2
WINDOW 3 4 32 VBottom 2
WINDOW 39 -15 93 VBottom 2
SYMATTR InstName C4
SYMATTR Value 3.3n
SYMATTR SpiceLine Rser=11K Cpar=100p
SYMBOL cap 544 -736 R270
WINDOW 0 32 32 VTop 2
WINDOW 3 0 32 VBottom 2
SYMATTR InstName C5
SYMATTR Value .01µ
SYMBOL nmos -144 -1600 M0
SYMATTR InstName Q3
SYMATTR Value BSC059N04LS6
SYMBOL nmos -144 -1312 M0
SYMATTR InstName Q4
SYMATTR Value BSC022N04LS6
SYMBOL schottky -128 -1504 R0
SYMATTR InstName D2
SYMATTR Value CMDSH-4E
SYMATTR Description Diode
SYMATTR Type diode
SYMBOL cap -128 -1408 R0
SYMATTR InstName C6
SYMATTR Value .1µ
SYMBOL ind -224 -1312 M270
WINDOW 0 32 56 VTop 2
WINDOW 3 5 56 VBottom 2
SYMATTR InstName L2
SYMATTR Value 0.9µ
SYMATTR SpiceLine Rser=1.6m
SYMBOL res -384 -1312 M270
WINDOW 0 32 56 VTop 2
WINDOW 3 0 56 VBottom 2
SYMATTR InstName R4
SYMATTR Value 2m
SYMBOL cap -608 -1296 R0
SYMATTR InstName C7
SYMATTR Value 330µ
SYMATTR SpiceLine Rser=15m
SYMBOL res -768 -1056 R0
SYMATTR InstName R5
SYMATTR Value 210K
SYMBOL res -768 -944 R0
SYMATTR InstName R6
SYMATTR Value 68.1K
SYMBOL cap -48 -832 M270
WINDOW 0 32 32 VTop 2
WINDOW 3 0 32 VBottom 2
WINDOW 39 -17 76 VBottom 2
SYMATTR InstName C8
SYMATTR Value 3.3n
SYMATTR SpiceLine Rser=4.5K Cpar=100p
SYMBOL cap -48 -736 M270
WINDOW 0 32 32 VTop 2
WINDOW 3 0 32 VBottom 2
SYMATTR InstName C9
SYMATTR Value .01µ
SYMBOL res -880 -1328 R0
SYMATTR InstName Rload1
SYMATTR Value 100
SYMBOL res 1232 -1328 R0
SYMATTR InstName Rload2
SYMATTR Value 100
SYMBOL cap -704 -1296 R0
WINDOW 3 37 34 Left 2
WINDOW 123 41 62 Left 2
SYMATTR Value 100µ
SYMATTR Value2 X2
SYMATTR SpiceLine Rser=5m
SYMATTR InstName C10
SYMBOL cap 1104 -1296 R0
WINDOW 3 37 34 Left 2
WINDOW 123 41 62 Left 2
SYMATTR Value 100µ
SYMATTR Value2 X2
SYMATTR SpiceLine Rser=5m
SYMATTR InstName C11
SYMBOL cap -96 -1120 R0
SYMATTR InstName C12
SYMATTR Value 1n
SYMBOL cap 528 -1120 R0
SYMATTR InstName C13
SYMATTR Value 1n
SYMBOL res -112 -1120 M270
WINDOW 0 32 56 VTop 2
WINDOW 3 0 56 VBottom 2
SYMATTR InstName R7
SYMATTR Value 20
SYMBOL LTC7802 272 -1216 R0
SYMATTR InstName U1
TEXT 736 -576 Left 2 !.tran 10m startup
