Version 4
SHEET 1 920 728
WIRE 192 -16 -32 -16
WIRE 560 -16 480 -16
WIRE 720 -16 640 -16
WIRE 816 -16 720 -16
WIRE -32 0 -32 -16
WIRE 720 0 720 -16
WIRE 816 0 816 -16
WIRE 160 80 48 80
WIRE 192 80 160 80
WIRE 512 80 480 80
WIRE 624 80 592 80
WIRE -32 96 -32 80
WIRE 48 96 48 80
WIRE 624 96 624 80
WIRE 720 96 720 64
WIRE 816 96 816 80
WIRE 160 176 160 80
WIRE 192 176 160 176
WIRE 48 192 48 176
WIRE 624 192 624 176
WIRE 192 272 -224 272
WIRE 560 272 480 272
WIRE 720 272 640 272
WIRE 816 272 720 272
WIRE -224 288 -224 272
WIRE 720 288 720 272
WIRE 816 288 816 272
WIRE 160 368 160 176
WIRE 192 368 160 368
WIRE 512 368 480 368
WIRE 624 368 592 368
WIRE -224 384 -224 368
WIRE 624 384 624 368
WIRE 720 384 720 352
WIRE 816 384 816 368
WIRE 192 464 -224 464
WIRE -224 480 -224 464
WIRE 624 480 624 464
WIRE 160 560 160 368
WIRE 192 560 160 560
WIRE 496 560 480 560
WIRE -224 576 -224 560
WIRE 336 624 336 608
FLAG -32 96 0
FLAG 48 192 0
FLAG -224 384 0
FLAG 624 480 0
FLAG 496 560 0
FLAG 336 624 0
FLAG 624 192 0
FLAG 720 96 0
FLAG 720 384 0
FLAG 816 96 0
FLAG 816 384 0
FLAG -224 576 0
FLAG -32 -16 IN
FLAG 816 -16 OUT1
FLAG 816 272 OUT2
SYMBOL voltage -32 -16 R0
SYMATTR InstName V1
SYMATTR Value 12
SYMBOL voltage 48 80 R0
SYMATTR InstName V2
SYMATTR Value 5
SYMBOL voltage -224 272 R0
WINDOW 123 24 138 Left 2
WINDOW 39 24 117 Left 2
SYMATTR InstName V3
SYMATTR Value PULSE(0 5 0 1n 1n 100n 1u)
SYMBOL ind 544 0 R270
WINDOW 0 32 56 VTop 2
WINDOW 3 5 56 VBottom 2
SYMATTR InstName L1
SYMATTR Value 0.1µ
SYMBOL ind 544 288 R270
WINDOW 0 32 56 VTop 2
WINDOW 3 5 56 VBottom 2
SYMATTR InstName L2
SYMATTR Value 0.1µ
SYMBOL voltage 624 368 R0
SYMATTR InstName V5
SYMATTR Value 1
SYMBOL res 496 96 R270
WINDOW 0 32 56 VTop 2
WINDOW 3 0 56 VBottom 2
SYMATTR InstName R1
SYMATTR Value 100
SYMBOL res 496 384 R270
WINDOW 0 32 56 VTop 2
WINDOW 3 0 56 VBottom 2
SYMATTR InstName R2
SYMATTR Value 100
SYMBOL voltage 624 80 R0
SYMATTR InstName V6
SYMATTR Value 1
SYMBOL cap 704 0 R0
SYMATTR InstName C1
SYMATTR Value 200µ
SYMBOL cap 704 288 R0
SYMATTR InstName C2
SYMATTR Value 200µ
SYMBOL res 800 -16 R0
SYMATTR InstName Rload1
SYMATTR Value 100m
SYMBOL res 800 272 R0
SYMATTR InstName Rload2
SYMATTR Value 100m
SYMBOL voltage -224 464 R0
WINDOW 123 24 138 Left 2
WINDOW 39 24 117 Left 2
SYMATTR InstName V4
SYMATTR Value PULSE(0 5 0 1n 1n 100n 1u)
SYMBOL LTC7050 336 272 R0
SYMATTR InstName U2
TEXT 704 568 Left 2 !.tran 300u
