Version 4
SHEET 1 1032 680
WIRE 32 -64 -272 -64
WIRE 160 -64 32 -64
WIRE 288 -64 160 -64
WIRE 416 -64 288 -64
WIRE -272 -48 -272 -64
WIRE 160 -48 160 -64
WIRE 288 -48 288 -64
WIRE 32 0 32 -64
WIRE 48 0 32 0
WIRE 416 0 416 -64
WIRE 416 0 400 0
WIRE -272 48 -272 32
WIRE -96 80 -128 80
WIRE 16 80 -96 80
WIRE 48 80 16 80
WIRE 480 80 400 80
WIRE -96 128 -96 80
WIRE 16 160 16 80
WIRE 48 160 16 160
WIRE 480 160 480 80
WIRE 480 160 400 160
WIRE -96 208 -96 192
WIRE 48 320 -32 320
WIRE 464 320 400 320
WIRE -368 400 -496 400
WIRE -288 400 -368 400
WIRE -144 400 -288 400
WIRE -32 400 -32 384
WIRE -32 400 -64 400
WIRE 48 400 -32 400
WIRE 464 400 464 384
WIRE 464 400 400 400
WIRE 560 400 464 400
WIRE 768 400 640 400
WIRE 832 400 768 400
WIRE 928 400 832 400
WIRE -496 416 -496 400
WIRE -368 416 -368 400
WIRE 832 416 832 400
WIRE 928 416 928 400
WIRE -288 480 -288 400
WIRE -224 480 -288 480
WIRE -16 480 -160 480
WIRE 48 480 -16 480
WIRE 480 480 400 480
WIRE 640 480 480 480
WIRE 768 480 768 400
WIRE 768 480 704 480
WIRE -496 512 -496 496
WIRE -368 512 -368 480
WIRE -16 512 -16 480
WIRE 480 512 480 480
WIRE 832 512 832 480
WIRE 928 512 928 496
WIRE 128 544 128 528
WIRE 224 544 224 528
WIRE 320 544 320 528
WIRE -16 608 -16 592
WIRE 480 608 480 592
WIRE 128 640 128 624
FLAG -272 48 0
FLAG -96 208 0
FLAG -496 512 0
FLAG -368 512 0
FLAG -16 608 0
FLAG 928 512 0
FLAG 832 512 0
FLAG 480 608 0
FLAG 128 640 0
FLAG 320 544 0
FLAG -272 -64 IN
FLAG -496 400 OUT1
FLAG 928 400 OUT2
FLAG 224 544 0
FLAG -128 80 INTVcc
FLAG 480 80 INTVcc
SYMBOL voltage -272 -64 R0
SYMATTR InstName V1
SYMATTR Value 12
SYMBOL cap -112 128 R0
SYMATTR InstName C1
SYMATTR Value 2.2µ
SYMBOL cap -48 320 R0
WINDOW 0 23 13 Left 2
SYMATTR InstName C2
SYMATTR Value 0.1µ
SYMBOL ind -48 416 M270
WINDOW 0 32 56 VTop 2
WINDOW 3 5 56 VBottom 2
SYMATTR InstName L1
SYMATTR Value 1.2µ
SYMATTR Value2 Rser=5m
SYMBOL cap -384 416 R0
SYMATTR InstName C3
SYMATTR Value 100µ
SYMATTR Value2 Rser=10m
SYMBOL cap -160 464 R90
WINDOW 0 0 32 VBottom 2
WINDOW 3 32 32 VTop 2
WINDOW 123 60 32 VTop 2
SYMATTR InstName C4
SYMATTR Value 22p
SYMATTR Value2 Rpar=619K
SYMBOL res -32 496 R0
SYMATTR InstName R1
SYMATTR Value 309K
SYMBOL cap 448 320 R0
SYMATTR InstName C5
SYMATTR Value 0.1µ
SYMBOL ind 544 416 R270
WINDOW 0 32 56 VTop 2
WINDOW 3 5 56 VBottom 2
SYMATTR InstName L2
SYMATTR Value 1.8µ
SYMATTR Value2 Rser=5m
SYMBOL cap 816 416 R0
SYMATTR InstName C6
SYMATTR Value 100µ
SYMATTR Value2 Rser=10m
SYMBOL cap 640 464 M90
WINDOW 0 0 32 VBottom 2
WINDOW 3 32 32 VTop 2
WINDOW 123 60 32 VTop 2
SYMATTR InstName C7
SYMATTR Value 16p
SYMATTR Value2 Rpar=619K
SYMBOL res 464 496 R0
SYMATTR InstName R2
SYMATTR Value 137K
SYMBOL res 112 528 R0
SYMATTR InstName R3
SYMATTR Value 100K
SYMBOL res -512 400 R0
SYMATTR InstName Rload1
SYMATTR Value 0.5
SYMBOL res 912 400 R0
SYMATTR InstName Rload2
SYMATTR Value 1
SYMBOL LTC7124 224 240 R0
SYMATTR InstName U2
TEXT 536 656 Left 2 !.tran 2m startup
