Version 4
SHEET 1 1856 1064
WIRE 704 -384 -368 -384
WIRE -368 -352 -368 -384
WIRE -368 -256 -368 -272
WIRE -96 -240 -208 -240
WIRE 592 -240 560 -240
WIRE -208 -144 -208 -160
WIRE -96 -144 -208 -144
WIRE -208 -128 -208 -144
WIRE 704 -48 704 -384
WIRE 704 -48 560 -48
WIRE -208 -32 -208 -48
WIRE -96 48 -128 48
WIRE 704 48 704 -48
WIRE 704 48 560 48
WIRE -224 144 -272 144
WIRE -96 144 -144 144
WIRE 608 144 560 144
WIRE 704 144 608 144
WIRE 864 144 704 144
WIRE 704 160 704 144
WIRE 864 160 864 144
WIRE 704 240 704 224
WIRE 704 240 560 240
WIRE 864 240 864 224
WIRE 704 256 704 240
WIRE 608 336 560 336
WIRE 704 336 704 320
WIRE 704 336 608 336
WIRE 800 336 704 336
WIRE 944 336 880 336
WIRE 1024 336 944 336
WIRE 1120 336 1024 336
WIRE 1232 336 1120 336
WIRE 1024 368 1024 336
WIRE 1120 368 1120 336
WIRE 1232 368 1232 336
WIRE -96 432 -128 432
WIRE 576 432 560 432
WIRE 1024 480 1024 432
WIRE 1120 480 1120 432
WIRE 1232 480 1232 448
WIRE 944 528 944 336
WIRE 944 528 560 528
WIRE -192 624 -224 624
WIRE -96 624 -128 624
WIRE 576 624 560 624
WIRE 96 704 96 688
WIRE 384 704 384 688
WIRE 192 736 192 688
WIRE 208 736 192 736
WIRE 288 736 288 688
WIRE 288 736 272 736
WIRE 192 800 192 736
WIRE 288 832 288 736
WIRE 384 832 384 784
WIRE 384 832 288 832
WIRE 192 912 192 880
WIRE 192 1008 192 976
WIRE 288 1008 288 832
WIRE 288 1008 192 1008
FLAG -208 -32 0
FLAG -272 144 0
FLAG 96 704 0
FLAG -368 -256 0
FLAG -368 -384 vIN
FLAG 1024 480 0
FLAG 1120 480 0
FLAG 576 624 0
FLAG 576 432 0
FLAG -224 624 0
FLAG 1232 480 0
FLAG 592 -240 0
FLAG 608 144 INTVcc
FLAG -128 432 INTVcc
FLAG 1232 336 vOUT
FLAG 608 336 SW
FLAG -128 48 INTVcc
FLAG 864 240 0
SYMBOL res -224 -256 R0
SYMATTR InstName R1
SYMATTR Value 6.04k
SYMBOL res -224 -144 R0
SYMATTR InstName R2
SYMATTR Value 5.97k
SYMBOL res -128 128 R90
WINDOW 0 0 56 VBottom 2
WINDOW 3 32 56 VTop 2
SYMATTR InstName R3
SYMATTR Value 11.8k
SYMBOL voltage -368 -368 R0
SYMATTR InstName V1
SYMATTR Value 12
SYMBOL res 368 688 R0
SYMATTR InstName R4
SYMATTR Value 1k
SYMBOL schottky 688 160 R0
SYMATTR InstName D1
SYMATTR Value CMDSH2-3
SYMATTR Description Diode
SYMATTR Type diode
SYMBOL cap 688 256 R0
SYMATTR InstName C2
SYMATTR Value 0.1µ
SYMBOL ind 784 352 R270
WINDOW 0 32 56 VTop 2
WINDOW 3 5 56 VBottom 2
SYMATTR InstName L1
SYMATTR Value 0.18µ
SYMBOL cap 1008 368 R0
WINDOW 123 24 84 Left 2
SYMATTR Value2 x2
SYMATTR InstName C3
SYMATTR Value 330µ
SYMBOL cap 1104 368 R0
WINDOW 123 24 84 Left 2
SYMATTR Value2 x2
SYMATTR InstName C4
SYMATTR Value 100µ
SYMBOL cap -192 608 M90
WINDOW 0 0 32 VBottom 2
WINDOW 3 32 32 VTop 2
SYMATTR InstName C5
SYMATTR Value 1n
SYMBOL res 1216 352 R0
SYMATTR InstName R5
SYMATTR Value 50m
SYMBOL cap 208 720 M90
WINDOW 0 -22 60 VTop 2
WINDOW 3 67 37 VBottom 2
WINDOW 39 60 32 VTop 2
SYMATTR InstName C6
SYMATTR Value 47p
SYMBOL LTC7131-1 240 176 R0
SYMATTR InstName U1
SYMBOL cap 848 160 R0
SYMATTR InstName C8
SYMATTR Value 4.7µ
SYMBOL res 176 784 R0
SYMATTR InstName R6
SYMATTR Value 6.04k
SYMBOL cap 176 912 R0
SYMATTR InstName C1
SYMATTR Value 4.7n
TEXT -384 -672 Left 2 !.param MFR_VOUT_COMMAND = 0
TEXT -384 -544 Left 2 !.param MARGIN_LOW = 0
TEXT -384 -520 Left 2 !.param MARGIN_HIGH = 0
TEXT -384 -648 Left 2 !.param MFR_VOUT_MARGIN_LOW = 0
TEXT -384 -624 Left 2 !.param MFR_VOUT_MARGIN_HIGH = 0
TEXT -384 -496 Left 2 !.param SOFT_OFF = 0
TEXT 584 752 Left 2 !.tran 0.6m startup
TEXT -384 -472 Left 2 !.param ONbit = 1
TEXT -384 -584 Left 2 !.param MFR_FAULT_RESPONSE = 0
