Version 4
SHEET 1 1416 1000
WIRE -256 -448 -352 -448
WIRE -32 -448 -256 -448
WIRE 80 -448 -32 -448
WIRE 528 -448 80 -448
WIRE 720 -448 528 -448
WIRE -352 -432 -352 -448
WIRE 1056 -416 416 -416
WIRE 192 -384 -112 -384
WIRE 304 -384 192 -384
WIRE 576 -384 304 -384
WIRE 656 -384 576 -384
WIRE 80 -352 80 -448
WIRE 192 -352 192 -384
WIRE 304 -352 304 -384
WIRE 416 -352 416 -416
WIRE -352 -336 -352 -352
WIRE 656 -304 656 -320
WIRE -32 -288 -32 -448
WIRE 16 -288 -32 -288
WIRE 528 -288 528 -448
WIRE 528 -288 480 -288
WIRE -112 -272 -112 -384
WIRE 576 -272 576 -384
WIRE -112 -192 -112 -208
WIRE 16 -192 -112 -192
WIRE 576 -192 576 -208
WIRE 576 -192 480 -192
WIRE -256 -176 -256 -448
WIRE 720 -176 720 -448
WIRE 16 -96 -208 -96
WIRE 672 -96 480 -96
WIRE -112 -80 -112 -192
WIRE 576 -80 576 -192
WIRE -752 0 -816 0
WIRE -672 0 -752 0
WIRE -576 0 -672 0
WIRE -512 0 -576 0
WIRE -496 0 -512 0
WIRE -400 0 -416 0
WIRE -368 0 -400 0
WIRE -256 0 -256 -80
WIRE -256 0 -288 0
WIRE -112 0 -112 -16
WIRE -112 0 -256 0
WIRE 16 0 -112 0
WIRE 576 0 576 -16
WIRE 576 0 480 0
WIRE 720 0 720 -80
WIRE 720 0 576 0
WIRE 768 0 720 0
WIRE 880 0 848 0
WIRE 896 0 880 0
WIRE 992 0 976 0
WIRE 1056 0 1056 -416
WIRE 1056 0 992 0
WIRE 1120 0 1056 0
WIRE 1200 0 1120 0
WIRE 1264 0 1200 0
WIRE -816 16 -816 0
WIRE -672 16 -672 0
WIRE -256 16 -256 0
WIRE 720 16 720 0
WIRE 1120 16 1120 0
WIRE 1264 16 1264 0
WIRE 16 96 -208 96
WIRE 672 96 480 96
WIRE -816 112 -816 96
WIRE -672 112 -672 80
WIRE 1120 112 1120 80
WIRE 1264 112 1264 96
WIRE -256 160 -256 112
WIRE 720 160 720 112
WIRE -400 192 -400 0
WIRE 16 192 -400 192
WIRE 880 192 880 0
WIRE 880 192 480 192
WIRE -576 272 -576 0
WIRE 1056 272 1056 0
WIRE 1168 272 1056 272
WIRE -512 288 -512 0
WIRE 16 288 -512 288
WIRE 992 288 992 0
WIRE 992 288 480 288
WIRE 1056 288 1056 272
WIRE 1168 288 1168 272
WIRE -576 384 -576 352
WIRE 16 384 -576 384
WIRE 1056 384 1056 368
WIRE 1056 384 480 384
WIRE 1168 384 1168 352
WIRE 1168 384 1056 384
WIRE -576 400 -576 384
WIRE 1056 400 1056 384
WIRE -224 480 -256 480
WIRE -112 480 -144 480
WIRE 16 480 -48 480
WIRE 528 480 480 480
WIRE 640 480 592 480
WIRE 736 480 720 480
WIRE -576 496 -576 480
WIRE 1056 496 1056 480
WIRE -112 576 -144 576
WIRE 16 576 -48 576
WIRE 528 576 480 576
WIRE 640 576 592 576
WIRE -112 672 -160 672
WIRE 16 672 -112 672
WIRE 560 672 480 672
WIRE -112 688 -112 672
WIRE -112 768 -112 752
WIRE 16 768 -16 768
WIRE 512 768 480 768
WIRE 80 864 80 832
WIRE 192 864 192 832
WIRE 416 864 416 832
WIRE -160 896 -160 672
WIRE 560 896 560 672
WIRE 560 896 -160 896
FLAG -352 -336 0
FLAG 656 -304 0
FLAG -352 -448 IN
FLAG -256 160 0
FLAG -816 112 0
FLAG -672 112 0
FLAG -576 496 0
FLAG -256 480 0
FLAG -144 576 0
FLAG -112 768 0
FLAG -16 768 0
FLAG 80 864 0
FLAG 192 864 0
FLAG 416 864 0
FLAG 512 768 0
FLAG 640 576 0
FLAG 720 160 0
FLAG 1264 112 0
FLAG 1120 112 0
FLAG 1056 496 0
FLAG 736 480 0
FLAG -752 0 OUT1
FLAG 1200 0 OUT2
SYMBOL voltage -352 -448 R0
SYMATTR InstName V1
SYMATTR Value 48
SYMBOL cap 640 -320 M180
WINDOW 0 24 56 Left 2
WINDOW 3 24 8 Left 2
SYMATTR InstName C1
SYMATTR Value 2.2µ
SYMBOL nmos -208 -176 M0
WINDOW 0 64 22 Left 2
WINDOW 3 62 75 Left 2
SYMATTR InstName Q1
SYMATTR Value BSC082N10LS
SYMBOL nmos -208 16 M0
WINDOW 0 -31 18 Left 2
WINDOW 3 35 105 Right 2
SYMATTR InstName Q2
SYMATTR Value BSC082N10LS
SYMBOL cap -128 -80 R0
SYMATTR InstName C2
SYMATTR Value 0.1µ
SYMBOL ind -272 16 M270
WINDOW 0 32 56 VTop 2
WINDOW 3 5 56 VBottom 2
SYMATTR InstName L1
SYMATTR Value 10µ
SYMBOL cap -688 16 R0
SYMATTR InstName C3
SYMATTR Value 470µ
SYMBOL res -400 -16 R90
WINDOW 0 0 56 VBottom 2
WINDOW 3 32 56 VTop 2
SYMATTR InstName R1
SYMATTR Value 8m
SYMBOL res -592 256 R0
SYMATTR InstName R2
SYMATTR Value 220K
SYMBOL res -592 384 R0
SYMATTR InstName R3
SYMATTR Value 55K
SYMBOL cap -48 464 R90
WINDOW 0 0 32 VBottom 2
WINDOW 3 32 32 VTop 2
SYMATTR InstName C4
SYMATTR Value 1.5n
SYMBOL cap -48 560 R90
WINDOW 0 5 32 VBottom 2
WINDOW 3 32 32 VTop 2
WINDOW 39 60 32 VTop 2
SYMATTR InstName C5
SYMATTR Value 10n
SYMBOL cap -128 688 R0
WINDOW 0 34 9 Left 2
WINDOW 3 35 53 Left 2
WINDOW 39 60 32 VTop 2
SYMATTR InstName C6
SYMATTR Value 0.1µ
SYMBOL cap 528 560 M90
WINDOW 0 3 32 VBottom 2
WINDOW 3 32 32 VTop 2
WINDOW 39 53 32 VTop 2
SYMATTR InstName C7
SYMATTR Value 10n
SYMBOL cap 560 -80 R0
SYMATTR InstName C8
SYMATTR Value 0.1µ
SYMBOL ind 752 16 R270
WINDOW 0 32 56 VTop 2
WINDOW 3 5 56 VBottom 2
SYMATTR InstName L2
SYMATTR Value 33µ
SYMBOL cap 1104 16 R0
SYMATTR InstName C9
SYMATTR Value 150µ
SYMBOL res 880 16 R270
WINDOW 0 32 56 VTop 2
WINDOW 3 0 56 VBottom 2
SYMATTR InstName R4
SYMATTR Value 10m
SYMBOL res 1040 272 R0
SYMATTR InstName R5
SYMATTR Value 220K
SYMBOL res 1040 384 R0
SYMATTR InstName R6
SYMATTR Value 20K
SYMBOL cap 528 464 M90
WINDOW 0 0 32 VBottom 2
WINDOW 3 32 32 VTop 2
SYMATTR InstName C10
SYMATTR Value 1.5n
SYMBOL nmos 672 -176 R0
SYMATTR InstName Q3
SYMATTR Value BSC082N10LS
SYMBOL nmos 672 16 R0
WINDOW 0 -7 20 Right 2
WINDOW 3 42 97 Right 2
SYMATTR InstName Q4
SYMATTR Value BSC082N10LS
SYMBOL diode -96 -272 M0
SYMATTR InstName D1
SYMATTR Value 1N5818
SYMBOL diode 560 -272 R0
SYMATTR InstName D2
SYMATTR Value 1N5818
SYMBOL cap 1152 288 R0
SYMATTR InstName C11
SYMATTR Value 22p
SYMBOL res -832 0 R0
SYMATTR InstName Rload1
SYMATTR Value 0.8333
SYMBOL res 1248 0 R0
SYMATTR InstName Rload2
SYMATTR Value 2.4
SYMBOL LTC7810 256 240 R0
SYMATTR InstName U1
SYMBOL res -128 464 R90
WINDOW 0 0 56 VBottom 2
WINDOW 3 32 56 VTop 2
SYMATTR InstName R7
SYMATTR Value 12.1K
SYMBOL res 624 496 R270
WINDOW 0 32 56 VTop 2
WINDOW 3 0 56 VBottom 2
SYMATTR InstName R8
SYMATTR Value 17.4K
TEXT 128 944 Left 2 !.tran 1.5m startup
