Version 4
SHEET 1 880 772
WIRE 16 -80 -96 -80
WIRE 160 -80 16 -80
WIRE 432 -80 160 -80
WIRE -96 -64 -96 -80
WIRE 160 -64 160 -80
WIRE 16 0 16 -80
WIRE 32 0 16 0
WIRE 432 0 432 -80
WIRE 432 0 416 0
WIRE -96 32 -96 16
WIRE 16 96 16 0
WIRE 32 96 16 96
WIRE 432 96 432 0
WIRE 432 96 416 96
WIRE -128 288 -272 288
WIRE 32 288 -128 288
WIRE 592 288 416 288
WIRE 688 288 592 288
WIRE -272 304 -272 288
WIRE -128 304 -128 288
WIRE 592 304 592 288
WIRE 688 304 688 288
WIRE 32 384 -64 384
WIRE 496 384 416 384
WIRE -272 400 -272 384
WIRE -128 400 -128 368
WIRE -64 400 -64 384
WIRE 496 400 496 384
WIRE 592 400 592 368
WIRE 688 400 688 384
WIRE -64 496 -64 480
WIRE 496 496 496 480
WIRE 160 656 160 640
FLAG 160 656 0
FLAG -96 32 0
FLAG 496 496 0
FLAG -64 496 0
FLAG -128 400 0
FLAG -272 400 0
FLAG 592 400 0
FLAG 688 400 0
FLAG 688 288 OUT2
FLAG -272 288 OUT1
FLAG -96 -80 IN
SYMBOL voltage -96 -80 R0
SYMATTR InstName V1
SYMATTR Value 12
SYMBOL res 480 384 R0
SYMATTR InstName R1
SYMATTR Value 40.2K
SYMBOL res -80 384 R0
SYMATTR InstName R2
SYMATTR Value 90.9K
SYMBOL cap -144 304 R0
SYMATTR InstName C1
SYMATTR Value 47µ
SYMATTR SpiceLine Rser=5m
SYMBOL res -288 288 R0
SYMATTR InstName Rload1
SYMATTR Value .4
SYMBOL cap 576 304 R0
SYMATTR InstName C2
SYMATTR Value 47µ
SYMATTR SpiceLine Rser=5m
SYMBOL res 672 288 R0
SYMATTR InstName Rload2
SYMATTR Value .6
SYMBOL LTM4622 224 336 R0
SYMATTR InstName U1
TEXT 480 584 Left 2 !.tran .5m startup
