Version 4
SHEET 1 2216 900
WIRE -368 -896 -752 -896
WIRE -176 -896 -368 -896
WIRE -752 -848 -752 -896
WIRE -176 -816 -176 -896
WIRE -368 -768 -368 -896
WIRE -320 -768 -368 -768
WIRE 96 -768 -32 -768
WIRE 224 -768 96 -768
WIRE 384 -768 224 -768
WIRE 544 -768 384 -768
WIRE 704 -768 544 -768
WIRE 880 -768 704 -768
WIRE -752 -752 -752 -768
WIRE 880 -752 880 -768
WIRE 224 -736 224 -768
WIRE 384 -736 384 -768
WIRE 544 -736 544 -768
WIRE 704 -736 704 -768
WIRE -368 -672 -368 -768
WIRE -320 -672 -368 -672
WIRE 96 -672 96 -768
WIRE 96 -672 -32 -672
WIRE 544 -624 544 -672
WIRE 704 -624 704 -672
WIRE 704 -624 544 -624
WIRE 704 -608 704 -624
WIRE 880 -608 880 -672
WIRE -512 -576 -592 -576
WIRE -320 -576 -432 -576
WIRE 224 -576 224 -656
WIRE 224 -576 -32 -576
WIRE -320 -480 -368 -480
WIRE 384 -480 384 -656
WIRE 384 -480 -32 -480
WIRE -368 -384 -368 -480
WIRE -320 -384 -368 -384
WIRE 144 -288 -32 -288
WIRE 240 -288 144 -288
WIRE 144 -256 144 -288
WIRE 240 -256 240 -288
WIRE 16 -96 -32 -96
WIRE 16 0 16 -96
WIRE 16 0 -32 0
WIRE -176 80 -176 48
WIRE 16 80 16 0
WIRE 16 80 -176 80
WIRE 144 80 144 -192
WIRE 144 80 16 80
WIRE 240 80 240 -176
WIRE 240 80 144 80
WIRE -176 112 -176 80
FLAG -752 -752 0
FLAG -592 -576 0
FLAG 880 -608 0
FLAG 880 -768 OUT
FLAG -752 -896 IN
FLAG 704 -608 0
FLAG -176 112 0
SYMBOL voltage -752 -864 R0
SYMATTR InstName V1
SYMATTR Value 12
SYMBOL res -416 -592 R90
WINDOW 0 0 56 VBottom 2
WINDOW 3 32 56 VTop 2
SYMATTR InstName R1
SYMATTR Value 137k
SYMBOL res 864 -768 R0
SYMATTR InstName Rload
SYMATTR Value 0.124
SYMBOL res 368 -752 R0
SYMATTR InstName R3
SYMATTR Value 49.9k
SYMBOL cap 688 -736 R0
WINDOW 3 34 31 Left 2
WINDOW 39 34 50 Left 2
SYMATTR Value 100µ
SYMATTR SpiceLine Rser=5m
SYMATTR InstName C2
SYMBOL cap 528 -736 R0
WINDOW 3 31 29 Left 2
WINDOW 39 35 49 Left 2
SYMATTR Value 100µ
SYMATTR SpiceLine Rser = 5m
SYMATTR InstName C3
SYMBOL res 208 -752 R0
SYMATTR InstName R5
SYMATTR Value 100k
SYMBOL cap 128 -256 R0
SYMATTR InstName C4
SYMATTR Value 0.33µ
SYMBOL res 224 -272 R0
SYMATTR InstName R6
SYMATTR Value 10k
SYMBOL LTM4702 -176 -512 R0
SYMATTR InstName U1
TEXT 8 -952 Left 2 !.tran 5m startup
TEXT -280 -952 Left 2 ;Vin=12V, Vout=1V/8A
