Version 4
SHEET 1 4056 2856
WIRE 3184 864 2608 864
WIRE 3264 864 3184 864
WIRE 3184 880 3184 864
WIRE 3120 976 3088 976
WIRE 3184 976 3184 960
WIRE 3184 976 3120 976
WIRE 2352 992 2336 992
WIRE 2608 992 2608 864
WIRE 2608 992 2352 992
WIRE 2640 992 2608 992
WIRE 3120 1008 3088 1008
WIRE 2336 1040 2336 992
WIRE 3120 1040 3120 1008
WIRE 3120 1040 3088 1040
WIRE 3216 1040 3120 1040
WIRE 3392 1040 3216 1040
WIRE 3440 1040 3392 1040
WIRE 3488 1040 3440 1040
WIRE 2608 1056 2608 992
WIRE 2640 1056 2608 1056
WIRE 3120 1056 3120 1040
WIRE 3392 1072 3392 1040
WIRE 3488 1072 3488 1040
WIRE 2640 1120 2464 1120
WIRE 2336 1136 2336 1120
WIRE 3120 1152 3120 1120
WIRE 3120 1152 3088 1152
WIRE 3296 1152 3120 1152
WIRE 3296 1168 3296 1152
WIRE 2528 1184 2512 1184
WIRE 2640 1184 2608 1184
WIRE 3152 1184 3088 1184
WIRE 3392 1200 3392 1136
WIRE 3488 1200 3488 1152
WIRE 3152 1216 3152 1184
WIRE 3152 1216 3088 1216
WIRE 3104 1264 3088 1264
WIRE 3296 1280 3296 1248
WIRE 2608 1344 2576 1344
WIRE 2640 1344 2608 1344
WIRE 3184 1344 3184 976
WIRE 3184 1344 3088 1344
WIRE 3216 1376 3216 1040
WIRE 3216 1376 3088 1376
WIRE 2608 1408 2608 1344
WIRE 2640 1408 2608 1408
WIRE 2464 1472 2464 1120
WIRE 2640 1472 2464 1472
WIRE 3264 1488 3264 864
WIRE 3264 1488 3088 1488
WIRE 3152 1520 3152 1216
WIRE 3152 1520 3088 1520
WIRE 2528 1536 2512 1536
WIRE 2640 1536 2608 1536
WIRE 3104 1600 3088 1600
WIRE 2608 1696 2576 1696
WIRE 2640 1696 2608 1696
WIRE 3184 1696 3184 1344
WIRE 3184 1696 3088 1696
WIRE 3216 1728 3216 1376
WIRE 3216 1728 3088 1728
WIRE 2608 1760 2608 1696
WIRE 2640 1760 2608 1760
WIRE 2464 1824 2464 1472
WIRE 2640 1824 2464 1824
WIRE 3264 1840 3264 1488
WIRE 3264 1840 3088 1840
WIRE 3152 1872 3152 1520
WIRE 3152 1872 3088 1872
WIRE 2640 1888 2624 1888
WIRE 3104 1952 3088 1952
WIRE 2608 2048 2576 2048
WIRE 2640 2048 2608 2048
WIRE 3184 2048 3184 1696
WIRE 3184 2048 3088 2048
WIRE 3216 2080 3216 1728
WIRE 3216 2080 3088 2080
WIRE 2608 2112 2608 2048
WIRE 2640 2112 2608 2112
WIRE 2464 2176 2464 1824
WIRE 2640 2176 2464 2176
WIRE 3264 2192 3264 1840
WIRE 3264 2192 3088 2192
WIRE 3152 2224 3152 1872
WIRE 3152 2224 3088 2224
WIRE 2528 2240 2512 2240
WIRE 2640 2240 2608 2240
WIRE 3104 2304 3088 2304
WIRE 2864 2384 2864 2368
FLAG 2864 2384 0
FLAG 3104 2304 0
FLAG 2336 1136 0
FLAG 3440 1040 OUT
FLAG 2352 992 IN
FLAG 3104 1952 0
FLAG 3104 1600 0
FLAG 3104 1264 0
FLAG 2512 1184 0
FLAG 2624 1888 0
FLAG 3120 976 PG
FLAG 2576 1344 IN
FLAG 2576 1696 IN
FLAG 2576 2048 IN
FLAG 3392 1200 0
FLAG 3488 1200 0
FLAG 2512 1536 IN
FLAG 2512 2240 IN
FLAG 3296 1280 0
SYMBOL VOLTAGE 2336 1024 R0
WINDOW 123 0 0 Left 0
WINDOW 39 0 0 Left 0
SYMATTR Value 3.3
SYMATTR InstName V1
SYMBOL res 3168 864 R0
SYMATTR InstName R4
SYMATTR Value 100k
SYMBOL res 2624 1168 R90
WINDOW 0 0 56 VBottom 2
WINDOW 3 32 56 VTop 2
SYMATTR InstName R1
SYMATTR Value 536k
SYMBOL res 2624 1520 R90
WINDOW 0 0 56 VBottom 2
WINDOW 3 32 56 VTop 2
SYMATTR InstName R2
SYMATTR Value 3.01Meg
SYMBOL res 2624 2224 R90
WINDOW 0 0 56 VBottom 2
WINDOW 3 32 56 VTop 2
SYMATTR InstName R3
SYMATTR Value 332k
SYMBOL cap 3376 1072 R0
WINDOW 123 24 84 Left 2
SYMATTR Value2 m=4
SYMATTR InstName C1
SYMATTR Value 100µ
SYMBOL res 3472 1056 R0
SYMATTR InstName Rload
SYMATTR Value 37.4m
SYMBOL LTM4710-1 2864 1568 R0
SYMATTR InstName U1
SYMBOL cap 3104 1056 R0
SYMATTR InstName C2
SYMATTR Value 68p
SYMBOL res 3280 1152 R0
SYMATTR InstName R5
SYMATTR Value 7.15k
TEXT 2488 2432 Left 2 !.tran 0.65m startup
