Version 4
SHEET 1 4484 1896
WIRE 704 -800 688 -800
WIRE 1088 -800 1072 -800
WIRE 1184 -800 1168 -800
WIRE 1280 -800 1264 -800
WIRE 144 -736 -16 -736
WIRE 416 -736 144 -736
WIRE 512 -736 416 -736
WIRE 608 -736 512 -736
WIRE 800 -736 608 -736
WIRE 896 -736 800 -736
WIRE 992 -736 896 -736
WIRE -16 -688 -16 -736
WIRE 416 -656 416 -736
WIRE 512 -656 512 -736
WIRE 608 -656 608 -736
WIRE 704 -656 704 -800
WIRE 800 -656 800 -736
WIRE 896 -656 896 -736
WIRE 992 -656 992 -736
WIRE 1088 -656 1088 -800
WIRE 1184 -656 1184 -800
WIRE 1280 -656 1280 -800
WIRE 352 -592 224 -592
WIRE 1456 -592 1344 -592
WIRE 1664 -592 1456 -592
WIRE 1760 -592 1664 -592
WIRE 1760 -560 1760 -592
WIRE -16 -544 -16 -608
WIRE 1664 -544 1664 -592
WIRE 224 -496 224 -592
WIRE 352 -496 224 -496
WIRE 1456 -496 1456 -592
WIRE 1456 -496 1344 -496
WIRE 1664 -448 1664 -480
WIRE 1760 -448 1760 -480
WIRE 1760 -448 1664 -448
WIRE 1664 -432 1664 -448
WIRE 224 -400 224 -496
WIRE 224 -400 -16 -400
WIRE 352 -400 224 -400
WIRE 1424 -400 1344 -400
WIRE -16 -352 -16 -400
WIRE 144 -304 144 -736
WIRE 352 -304 144 -304
WIRE 1568 -304 1344 -304
WIRE -16 -208 -16 -272
WIRE 144 -208 144 -304
WIRE 352 -208 144 -208
WIRE 1456 -208 1344 -208
WIRE 1664 -208 1456 -208
WIRE 1760 -208 1664 -208
WIRE 1760 -176 1760 -208
WIRE 1664 -160 1664 -208
WIRE 144 -112 144 -208
WIRE 352 -112 144 -112
WIRE 1456 -112 1456 -208
WIRE 1456 -112 1344 -112
WIRE 1664 -64 1664 -96
WIRE 1760 -64 1760 -96
WIRE 1760 -64 1664 -64
WIRE 1664 -48 1664 -64
WIRE 352 -16 272 -16
WIRE 1424 -16 1344 -16
WIRE 352 80 272 80
WIRE 1568 80 1568 -304
WIRE 1568 80 1344 80
WIRE 352 176 272 176
WIRE 1456 176 1344 176
WIRE 1664 176 1456 176
WIRE 1760 176 1664 176
WIRE 1760 208 1760 176
WIRE 1664 224 1664 176
WIRE 352 272 -16 272
WIRE 1456 272 1456 176
WIRE 1456 272 1344 272
WIRE 1664 320 1664 288
WIRE 1760 320 1760 288
WIRE 1760 320 1664 320
WIRE 1664 336 1664 320
WIRE 144 368 144 -112
WIRE 352 368 144 368
WIRE 1424 368 1344 368
WIRE -16 464 -16 272
WIRE 352 464 -16 464
WIRE 1568 464 1568 80
WIRE 1568 464 1344 464
WIRE 144 608 144 368
WIRE 992 608 992 528
WIRE 992 608 144 608
WIRE 1136 608 1136 528
WIRE 1136 608 992 608
WIRE -16 688 -16 464
WIRE 560 688 560 528
WIRE 560 688 -16 688
WIRE 848 688 848 528
WIRE 848 688 560 688
WIRE 1280 688 1280 528
WIRE 1280 688 848 688
WIRE 1568 688 1568 464
WIRE 1568 688 1280 688
WIRE 848 752 848 688
FLAG -16 -208 0
FLAG -16 -544 0
FLAG 1664 -432 0
FLAG 1664 -48 0
FLAG 1664 336 0
FLAG -16 -400 IN
FLAG 1760 -592 OUT1
FLAG 1760 -208 OUT2
FLAG 1760 176 OUT3
FLAG 848 752 0
FLAG -16 -736 BIAS
FLAG 688 -800 VIOC1
FLAG 1072 -800 IMON1
FLAG 1168 -800 IMON2
FLAG 1264 -800 IMON3
FLAG 272 -16 PG1
FLAG 272 80 PG2
FLAG 272 176 PG3
FLAG 1424 -400 VREF1
FLAG 1424 -16 VREF2
FLAG 1424 368 VREF3
SYMBOL voltage -16 -368 R0
WINDOW 123 0 0 Left 0
WINDOW 39 0 0 Left 0
SYMATTR InstName V1
SYMATTR Value 1.3
SYMBOL voltage -16 -704 R0
WINDOW 123 0 0 Left 0
WINDOW 39 0 0 Left 0
SYMATTR InstName V2
SYMATTR Value 3.3
SYMBOL cap 1648 -544 R0
SYMATTR InstName C1
SYMATTR Value 22µ
SYMBOL cap 1648 -160 R0
SYMATTR InstName C2
SYMATTR Value 22µ
SYMBOL cap 1648 224 R0
SYMATTR InstName C3
SYMATTR Value 22µ
SYMBOL res 1744 -576 R0
SYMATTR InstName R1
SYMATTR Value 0.267
SYMBOL res 1744 -192 R0
SYMATTR InstName R2
SYMATTR Value 0.333
SYMBOL res 1744 192 R0
SYMATTR InstName R3
SYMATTR Value 0.3
SYMBOL LTM4709 848 -80 R0
SYMATTR InstName U1
TEXT 1400 -648 Left 2 !.tran 0 5m 0
TEXT 1856 -528 Left 2 ;0.8V
TEXT 1856 -144 Left 2 ;1V
TEXT 1856 248 Left 2 ;0.9V
