Version 4
SHEET 1 880 680
WIRE 16 -80 -96 -80
WIRE 160 -80 16 -80
WIRE 432 -80 160 -80
WIRE -96 -64 -96 -80
WIRE 160 -64 160 -80
WIRE 16 0 16 -80
WIRE 32 0 16 0
WIRE 432 0 432 -80
WIRE 432 0 416 0
WIRE -96 32 -96 16
WIRE -160 192 -304 192
WIRE 16 192 -160 192
WIRE 32 192 16 192
WIRE 512 192 416 192
WIRE 608 192 512 192
WIRE -304 208 -304 192
WIRE -160 208 -160 192
WIRE 512 208 512 192
WIRE 608 208 608 192
WIRE 32 288 -96 288
WIRE 432 288 416 288
WIRE -304 304 -304 288
WIRE -160 304 -160 272
WIRE -96 304 -96 288
WIRE 512 304 512 272
WIRE 608 304 608 288
WIRE 16 384 16 192
WIRE 32 384 16 384
WIRE -96 400 -96 384
WIRE 160 560 160 544
WIRE 288 560 288 544
FLAG 160 560 0
FLAG -96 32 0
FLAG -96 400 0
FLAG -160 304 0
FLAG -304 304 0
FLAG 512 304 0
FLAG 608 304 0
FLAG -96 -80 IN
FLAG 288 560 0
SYMBOL voltage -96 -80 R0
SYMATTR InstName V1
SYMATTR Value 12
SYMBOL res -112 288 R0
SYMATTR InstName R2
SYMATTR Value 52.3K
SYMBOL cap -176 208 R0
SYMATTR InstName C1
SYMATTR Value 22µ
SYMATTR SpiceLine Rser=5m
SYMBOL res -320 192 R0
SYMATTR InstName Rload1
SYMATTR Value .433
SYMBOL cap 496 208 R0
SYMATTR InstName C2
SYMATTR Value 22µ
SYMATTR SpiceLine Rser=5m
SYMBOL res 592 192 R0
SYMATTR InstName Rload2
SYMATTR Value .217
SYMBOL PowerProducts\\LTM4632 224 240 R0
SYMATTR InstName U1
TEXT 528 480 Left 2 !.tran 1m startup
