Version 4
SHEET 1 1080 680
WIRE -272 -576 -480 -576
WIRE -208 -576 -272 -576
WIRE -480 -560 -480 -576
WIRE 176 -544 -32 -544
WIRE -208 -512 -208 -576
WIRE -32 -512 -32 -544
WIRE -480 -480 -480 -496
WIRE -544 -432 -608 -432
WIRE -480 -432 -544 -432
WIRE -352 -432 -480 -432
WIRE 176 -432 176 -544
WIRE 176 -432 112 -432
WIRE 288 -432 176 -432
WIRE 368 -432 288 -432
WIRE 400 -432 368 -432
WIRE 512 -432 480 -432
WIRE 592 -432 512 -432
WIRE 656 -432 592 -432
WIRE 720 -432 656 -432
WIRE -480 -416 -480 -432
WIRE 288 -416 288 -432
WIRE 592 -416 592 -432
WIRE 720 -416 720 -432
WIRE -608 -400 -608 -432
WIRE 176 -336 112 -336
WIRE -480 -320 -480 -336
WIRE -352 -320 -480 -320
WIRE 176 -320 176 -336
WIRE 720 -320 720 -336
WIRE -480 -304 -480 -320
WIRE 288 -304 288 -352
WIRE 592 -304 592 -352
WIRE -608 -288 -608 -320
WIRE 176 -224 176 -240
WIRE -480 -192 -480 -224
WIRE 368 -192 368 -432
WIRE 512 -192 512 -432
WIRE -352 -96 -400 -96
WIRE 176 -96 112 -96
WIRE 368 -96 368 -112
WIRE 368 -96 176 -96
WIRE 176 -80 176 -96
WIRE -400 16 -400 -96
WIRE -352 16 -400 16
WIRE 176 16 176 -16
WIRE 176 16 112 16
WIRE 512 16 512 -112
WIRE 512 16 176 16
WIRE -352 128 -480 128
WIRE -480 144 -480 128
WIRE -480 240 -480 224
WIRE -352 240 -384 240
WIRE 144 352 112 352
WIRE 256 352 224 352
WIRE -352 464 -480 464
WIRE -480 480 -480 464
WIRE -480 576 -480 544
WIRE -256 576 -256 544
WIRE -128 576 -128 544
WIRE -128 576 -256 576
WIRE 0 576 0 544
WIRE 0 576 -128 576
WIRE -128 608 -128 576
FLAG -608 -288 0
FLAG -480 -192 0
FLAG -384 240 0
FLAG -480 240 0
FLAG -480 576 0
FLAG -480 -480 0
FLAG 176 -224 0
FLAG 592 -304 0
FLAG 720 -320 0
FLAG 656 -432 OUT
FLAG -128 608 0
FLAG 288 -304 0
FLAG -544 -432 IN
FLAG -272 -576 INTVCC
FLAG 256 352 INTVCC
SYMBOL voltage -608 -416 R0
WINDOW 123 0 0 Left 0
WINDOW 39 0 0 Left 0
SYMATTR InstName V1
SYMATTR Value 15
SYMBOL res -496 -432 R0
SYMATTR InstName R1
SYMATTR Value 1Meg
SYMBOL res -496 -320 R0
SYMATTR InstName R2
SYMATTR Value 365K
SYMBOL res 240 336 R90
WINDOW 0 0 56 VBottom 2
WINDOW 3 32 56 VTop 2
SYMATTR InstName R3
SYMATTR Value 100K
SYMBOL res -496 128 R0
SYMATTR InstName R4
SYMATTR Value 140K
SYMBOL cap -496 480 R0
SYMATTR InstName C1
SYMATTR Value 4.7n
SYMBOL cap -496 -560 R0
SYMATTR InstName C2
SYMATTR Value 2.2µ
SYMBOL res 160 -336 R0
SYMATTR InstName R5
SYMATTR Value 9.09K
SYMBOL cap 272 -416 R0
WINDOW 123 27 79 Left 2
WINDOW 3 25 55 Left 2
SYMATTR Value2 x6
SYMATTR Value 22µ
SYMATTR InstName C5
SYMBOL res 384 -416 R270
WINDOW 0 32 56 VTop 2
WINDOW 3 0 56 VBottom 2
SYMATTR InstName R6
SYMATTR Value 2m
SYMBOL res 352 -208 R0
SYMATTR InstName R7
SYMATTR Value 100
SYMBOL res 496 -208 R0
SYMATTR InstName R8
SYMATTR Value 100
SYMBOL cap 160 -80 R0
SYMATTR InstName C7
SYMATTR Value 1µ
SYMBOL res 704 -432 R0
SYMATTR InstName Rload1
SYMATTR Value 4.8
SYMBOL cap 576 -416 R0
WINDOW 3 25 57 Left 2
WINDOW 123 28 78 Left 2
SYMATTR Value 100µ
SYMATTR Value2 x2
SYMATTR InstName C8
SYMBOL LTM4712 -128 16 R0
SYMATTR InstName U1
TEXT 256 560 Left 2 !.tran 3m startup
