Version 4
SHEET 1 2216 900
WIRE -368 -896 -512 -896
WIRE -176 -896 -368 -896
WIRE -512 -848 -512 -896
WIRE -176 -816 -176 -896
WIRE -368 -768 -368 -896
WIRE -320 -768 -368 -768
WIRE 16 -768 -32 -768
WIRE 80 -768 16 -768
WIRE 192 -768 80 -768
WIRE 320 -768 192 -768
WIRE 480 -768 320 -768
WIRE -512 -752 -512 -768
WIRE 480 -736 480 -768
WIRE 80 -720 80 -768
WIRE 192 -720 192 -768
WIRE 320 -720 320 -768
WIRE -368 -672 -368 -768
WIRE -320 -672 -368 -672
WIRE 16 -672 16 -768
WIRE 16 -672 -32 -672
WIRE 320 -608 320 -656
WIRE 480 -608 480 -656
WIRE -464 -576 -496 -576
WIRE -320 -576 -384 -576
WIRE 80 -576 80 -640
WIRE 80 -576 -32 -576
WIRE -320 -480 -368 -480
WIRE 192 -480 192 -640
WIRE 192 -480 -32 -480
WIRE -368 -384 -368 -480
WIRE -320 -384 -368 -384
WIRE 80 -288 -32 -288
WIRE 192 -288 80 -288
WIRE 80 -240 80 -288
WIRE 192 -240 192 -288
WIRE 16 -96 -32 -96
WIRE 16 0 16 -96
WIRE 16 0 -32 0
WIRE -176 80 -176 48
WIRE 16 80 16 0
WIRE 16 80 -176 80
WIRE 80 80 80 -176
WIRE 80 80 16 80
WIRE 192 80 192 -160
WIRE 192 80 80 80
WIRE -176 112 -176 80
FLAG -512 -752 0
FLAG -496 -576 0
FLAG 480 -608 0
FLAG 480 -768 vOUT
FLAG -512 -896 vIN
FLAG 320 -608 0
FLAG -176 112 0
SYMBOL voltage -512 -864 R0
SYMATTR InstName V1
SYMATTR Value 12
SYMBOL res -368 -592 R90
WINDOW 0 0 56 VBottom 2
WINDOW 3 32 56 VTop 2
SYMATTR InstName R1
SYMATTR Value 137k
SYMBOL res 464 -752 R0
SYMATTR InstName Rload
SYMATTR Value 0.125
SYMBOL res 176 -736 R0
SYMATTR InstName R3
SYMATTR Value 49.9k
SYMBOL cap 304 -720 R0
WINDOW 3 34 31 Left 2
WINDOW 123 34 59 Left 2
SYMATTR Value 100µ
SYMATTR Value2 m=2
SYMATTR SpiceLine Rser=5m
SYMATTR InstName C1
SYMBOL res 64 -736 R0
SYMATTR InstName R2
SYMATTR Value 100k
SYMBOL cap 64 -240 R0
SYMATTR InstName C2
SYMATTR Value 0.33µ
SYMBOL res 176 -256 R0
SYMATTR InstName R4
SYMATTR Value 10k
SYMBOL LTM4703 -176 -512 R0
SYMATTR InstName U1
TEXT -32 128 Left 2 !.tran 5m startup
