Version 4
SHEET 1 1176 756
WIRE 16 -144 -80 -144
WIRE 128 -144 16 -144
WIRE 224 -144 128 -144
WIRE -80 -128 -80 -144
WIRE 336 -128 32 -128
WIRE 128 -112 128 -144
WIRE 224 -112 224 -144
WIRE 336 -112 336 -128
WIRE 32 -48 32 -128
WIRE 48 -48 32 -48
WIRE 528 -48 512 -48
WIRE -80 -32 -80 -48
WIRE 16 48 16 -144
WIRE 48 48 16 48
WIRE 528 48 512 48
WIRE -64 240 -96 240
WIRE 48 240 16 240
WIRE 560 240 512 240
WIRE 560 256 560 240
WIRE 560 336 560 320
WIRE 560 336 512 336
WIRE 656 336 560 336
WIRE 752 336 656 336
WIRE 656 352 656 336
WIRE 752 352 752 336
WIRE 48 432 16 432
WIRE 560 432 560 336
WIRE 560 432 512 432
WIRE 656 448 656 416
WIRE 752 448 752 432
WIRE 16 528 16 432
WIRE 48 528 16 528
WIRE 160 608 160 592
WIRE 288 608 288 592
WIRE -96 704 -96 240
WIRE 288 704 288 688
WIRE 288 704 -96 704
WIRE 560 704 560 432
WIRE 560 704 288 704
FLAG -80 -32 0
FLAG 160 608 0
FLAG 752 448 0
FLAG 528 -48 0
FLAG 528 48 0
FLAG -80 -144 IN
FLAG 752 336 OUT
FLAG 656 448 0
SYMBOL PowerProducts\\LTM4651 288 240 R0
SYMATTR InstName U1
SYMBOL voltage -80 -144 R0
WINDOW 123 0 0 Left 2
WINDOW 39 0 0 Left 2
SYMATTR InstName V1
SYMATTR Value 24
SYMBOL res 272 592 R0
SYMATTR InstName R1
SYMATTR Value 481K
SYMBOL res 32 224 R90
WINDOW 0 0 56 VBottom 2
WINDOW 3 32 56 VTop 2
SYMATTR InstName R2
SYMATTR Value 90.9K
SYMBOL cap 544 256 R0
SYMATTR InstName C2
SYMATTR Value 4.7µ
SYMBOL res 736 336 R0
SYMATTR InstName Rload
SYMATTR Value 12
SYMBOL cap 640 352 R0
SYMATTR InstName C3
SYMATTR Value 22µ
SYMATTR SpiceLine Rser=1m
TEXT 640 648 Left 2 !.tran .6m startup
