Version 4
SHEET 1 1200 720
WIRE -32 -144 -112 -144
WIRE 48 -144 -32 -144
WIRE 176 -144 48 -144
WIRE 256 -144 176 -144
WIRE -112 -128 -112 -144
WIRE -32 -128 -32 -144
WIRE 256 -128 256 -144
WIRE 48 -80 48 -144
WIRE 64 -80 48 -80
WIRE 480 -80 448 -80
WIRE 592 -80 560 -80
WIRE -112 -32 -112 -48
WIRE -32 -32 -32 -64
WIRE 512 0 448 0
WIRE 64 80 -32 80
WIRE -32 96 -32 80
WIRE -144 240 -256 240
WIRE -48 240 -144 240
WIRE 32 240 -48 240
WIRE 64 240 32 240
WIRE 480 240 448 240
WIRE 560 240 480 240
WIRE 656 240 560 240
WIRE 768 240 656 240
WIRE 656 256 656 240
WIRE 32 320 32 240
WIRE 64 320 32 320
WIRE 480 320 480 240
WIRE 480 320 448 320
WIRE 656 320 656 304
WIRE -256 336 -256 320
WIRE -144 336 -144 304
WIRE -48 336 -48 320
WIRE 32 336 -48 336
WIRE 560 336 560 320
WIRE 560 336 480 336
WIRE 656 336 656 320
WIRE 768 336 768 320
WIRE -48 352 -48 336
WIRE 560 352 560 336
WIRE 32 400 32 336
WIRE 64 400 32 400
WIRE 480 400 480 336
WIRE 480 400 448 400
WIRE -48 448 -48 432
WIRE 560 448 560 432
WIRE -32 480 -112 480
WIRE 64 480 -32 480
WIRE 528 480 448 480
WIRE 608 480 528 480
WIRE -112 512 -112 480
WIRE -32 512 -32 480
WIRE 528 512 528 480
WIRE 608 512 608 480
WIRE 256 560 256 528
WIRE -112 608 -112 576
WIRE -32 608 -32 592
WIRE -32 608 -112 608
WIRE 528 608 528 592
WIRE 608 608 608 576
WIRE 608 608 528 608
FLAG -112 -32 0
FLAG 592 -80 0
FLAG 512 64 0
FLAG -112 608 0
FLAG 608 608 0
FLAG -144 336 0
FLAG -48 448 0
FLAG -144 240 VOUT1
FLAG 656 240 VOUT2
FLAG 256 560 0
FLAG -32 80 Vbus
FLAG -32 160 0
FLAG 176 -144 IN
FLAG -32 -32 0
FLAG -256 336 0
FLAG 656 336 0
FLAG 560 448 0
FLAG 768 336 0
SYMBOL voltage -112 -144 R0
WINDOW 123 0 0 Left 0
WINDOW 39 0 0 Left 0
SYMATTR InstName V1
SYMATTR Value 12
SYMBOL res 576 -96 R90
WINDOW 0 0 56 VBottom 2
WINDOW 3 32 56 VTop 2
SYMATTR InstName R1
SYMATTR Value 33.2k
SYMBOL cap 496 0 R0
SYMATTR InstName C1
SYMATTR Value 1n
SYMBOL res -48 496 R0
SYMATTR InstName R2
SYMATTR Value 33.2k
SYMBOL cap -128 512 R0
SYMATTR InstName C2
SYMATTR Value 200n
SYMBOL res 544 496 M0
SYMATTR InstName R3
SYMATTR Value 33.2k
SYMBOL cap 624 512 M0
SYMATTR InstName C3
SYMATTR Value 200n
SYMBOL cap -160 240 R0
WINDOW 0 33 21 Left 2
SYMATTR InstName C4
SYMATTR Value 10µ
SYMBOL cap 672 256 M0
WINDOW 0 34 21 Left 2
SYMATTR InstName C5
SYMATTR Value 10µ
SYMBOL res -64 224 R0
SYMATTR InstName R6
SYMATTR Value 100k
SYMBOL res -64 336 R0
SYMATTR InstName R7
SYMATTR Value 10k
SYMBOL cap -48 96 R0
WINDOW 3 24 46 Left 2
SYMATTR Value 10µ
SYMATTR InstName C6
SYMBOL cap -48 -128 R0
SYMATTR InstName C7
SYMATTR Value 10µ
SYMBOL res -272 224 R0
SYMATTR InstName R4
SYMATTR Value 6.6
SYMBOL res 784 224 M0
SYMATTR InstName R5
SYMATTR Value 6.6
SYMBOL LTM8080 256 192 R0
SYMATTR InstName U1
SYMBOL res 576 224 M0
SYMATTR InstName R8
SYMATTR Value 100k
SYMBOL res 576 336 M0
SYMATTR InstName R9
SYMATTR Value 10k
TEXT 360 704 Left 2 !.tran 1m startup
TEXT -160 -256 Left 2 ;Both channels are configured for fast start-up. If fast-start up is not needed, \nconnect PGFBn pin to Vbus for slow start-up/reduced component count.
