Version 4
SHEET 1 880 692
WIRE -64 -32 -176 -32
WIRE 64 -32 -64 -32
WIRE 224 -32 64 -32
WIRE -176 -16 -176 -32
WIRE 224 -16 224 -32
WIRE 64 48 64 -32
WIRE 80 48 64 48
WIRE 432 48 368 48
WIRE 544 48 432 48
WIRE 640 48 544 48
WIRE 544 64 544 48
WIRE 640 64 640 48
WIRE -176 80 -176 64
WIRE 432 80 432 48
WIRE 384 128 368 128
WIRE 544 160 544 128
WIRE 640 160 640 144
WIRE -16 208 -32 208
WIRE 80 208 64 208
WIRE 432 208 432 160
WIRE 432 208 368 208
WIRE 224 288 224 272
WIRE -64 320 -64 -32
WIRE 64 320 -64 320
WIRE 224 320 64 320
WIRE 224 336 224 320
WIRE 64 400 64 320
WIRE 80 400 64 400
WIRE 384 400 368 400
WIRE 480 480 368 480
WIRE 544 480 480 480
WIRE 640 480 544 480
WIRE 544 496 544 480
WIRE 640 496 640 480
WIRE -16 560 -32 560
WIRE 80 560 64 560
WIRE 384 560 368 560
WIRE 480 560 480 480
WIRE 480 560 464 560
WIRE 544 592 544 560
WIRE 640 592 640 576
WIRE 224 640 224 624
FLAG -176 80 0
FLAG -32 208 0
FLAG 224 288 0
FLAG 384 128 0
FLAG 640 160 0
FLAG 544 160 0
FLAG -176 -32 IN
FLAG 640 48 OUT-
FLAG -32 560 0
FLAG 224 640 0
FLAG 384 400 0
FLAG 640 592 0
FLAG 544 592 0
FLAG 640 480 OUT+
SYMBOL PowerProducts\\LTM8045 224 128 R0
SYMATTR InstName U1
SYMBOL voltage -176 -32 R0
WINDOW 123 0 0 Left 2
WINDOW 39 0 0 Left 2
SYMATTR InstName V1
SYMATTR Value 12
SYMBOL res 80 192 R90
WINDOW 0 0 56 VBottom 2
WINDOW 3 32 56 VTop 2
SYMATTR InstName R1
SYMATTR Value 130K
SYMBOL res 416 64 R0
SYMATTR InstName R2
SYMATTR Value 60.4K
SYMBOL cap 528 64 R0
SYMATTR InstName C1
SYMATTR Value 22µ
SYMATTR SpiceLine V=10 Irms=10.206 Rser=0.005 Lser=0 mfg="KEMET" pn="C1210C226K8PAC" type="X5R"
SYMBOL res 624 48 R0
SYMATTR InstName Rload-
SYMATTR Value 10
SYMBOL PowerProducts\\LTM8045 224 480 R0
SYMATTR InstName U2
SYMBOL res 80 544 R90
WINDOW 0 0 56 VBottom 2
WINDOW 3 32 56 VTop 2
SYMATTR InstName R3
SYMATTR Value 115K
SYMBOL res 480 544 R90
WINDOW 0 0 56 VBottom 2
WINDOW 3 32 56 VTop 2
SYMATTR InstName R4
SYMATTR Value 45.3K
SYMBOL res 624 480 R0
SYMATTR InstName Rload+
SYMATTR Value 10
SYMBOL cap 528 496 R0
SYMATTR InstName C2
SYMATTR Value 100µ
SYMATTR SpiceLine V=6.3 Irms=0 Rser=0.002 Lser=0 mfg="TDK" pn="C575OX5ROJI07M" type="X5R"
TEXT 544 672 Left 2 !.tran 1m startup
