Version 4
SHEET 1 880 680
WIRE 80 -16 -48 -16
WIRE 240 -16 80 -16
WIRE -48 0 -48 -16
WIRE 240 0 240 -16
WIRE 80 64 80 -16
WIRE 96 64 80 64
WIRE 560 64 384 64
WIRE 656 64 560 64
WIRE 560 80 560 64
WIRE 656 80 656 64
WIRE -48 96 -48 80
WIRE 96 160 80 160
WIRE 448 160 384 160
WIRE 448 176 448 160
WIRE 560 176 560 144
WIRE 656 176 656 160
WIRE 448 272 448 256
WIRE 0 352 -16 352
WIRE 96 352 80 352
WIRE 400 352 384 352
WIRE 480 352 464 352
WIRE 240 432 240 416
FLAG -48 96 0
FLAG 240 432 0
FLAG -16 352 0
FLAG 80 160 0
FLAG 448 272 0
FLAG 480 352 0
FLAG 560 176 0
FLAG 656 176 0
FLAG 656 64 OUT
FLAG -48 -16 IN
SYMBOL PowerProducts\\LTM8002 240 208 R0
SYMATTR InstName U1
SYMBOL voltage -48 -16 R0
SYMATTR InstName V1
SYMATTR Value 12
SYMBOL res 96 336 R90
WINDOW 0 0 56 VBottom 2
WINDOW 3 32 56 VTop 2
SYMATTR InstName R1
SYMATTR Value 41.2K
SYMBOL res 432 160 R0
SYMATTR InstName R2
SYMATTR Value 24.3K
SYMBOL cap 464 336 R90
WINDOW 0 0 32 VBottom 2
WINDOW 3 32 32 VTop 2
SYMATTR InstName C1
SYMATTR Value 1n
SYMBOL cap 544 80 R0
SYMATTR InstName C2
SYMATTR Value 22µ
SYMBOL res 640 64 R0
SYMATTR InstName R3
SYMATTR Value 10
TEXT 456 432 Left 2 !.tran 750u startup
