Version 4
SHEET 1 1944 2168
WIRE -784 -272 -864 -272
WIRE -752 -272 -784 -272
WIRE -400 -272 -752 -272
WIRE 32 -272 -400 -272
WIRE 160 -272 32 -272
WIRE 288 -272 160 -272
WIRE 720 -272 288 -272
WIRE 1072 -272 720 -272
WIRE -864 -240 -864 -272
WIRE 32 -192 32 -272
WIRE 160 -192 160 -272
WIRE 288 -192 288 -272
WIRE -864 -128 -864 -160
WIRE -400 -128 -400 -272
WIRE -320 -128 -400 -128
WIRE -64 -128 -240 -128
WIRE 560 -128 416 -128
WIRE 720 -128 720 -272
WIRE 720 -128 640 -128
WIRE -608 -32 -672 -32
WIRE -512 -32 -608 -32
WIRE -400 -32 -512 -32
WIRE -288 -32 -400 -32
WIRE -64 -32 -288 -32
WIRE 608 -32 416 -32
WIRE 720 -32 608 -32
WIRE 848 -32 720 -32
WIRE 896 -32 848 -32
WIRE 944 -32 896 -32
WIRE -672 -16 -672 -32
WIRE -400 -16 -400 -32
WIRE -288 -16 -288 -32
WIRE 608 -16 608 -32
WIRE 720 -16 720 -32
WIRE 944 -16 944 -32
WIRE -288 64 -288 48
WIRE -64 64 -288 64
WIRE 608 64 608 48
WIRE 608 64 416 64
WIRE -672 80 -672 64
WIRE -400 80 -400 48
WIRE -288 80 -288 64
WIRE 608 80 608 64
WIRE 720 80 720 48
WIRE 944 80 944 64
WIRE -288 176 -288 160
WIRE 608 176 608 160
WIRE -160 256 -176 256
WIRE -64 256 -96 256
WIRE 448 256 416 256
WIRE 528 256 512 256
WIRE 448 352 416 352
WIRE 528 352 512 352
WIRE -512 448 -512 -32
WIRE -320 448 -512 448
WIRE -64 448 -240 448
WIRE 576 448 416 448
WIRE 848 448 848 -32
WIRE 848 448 656 448
WIRE -320 544 -352 544
WIRE -64 544 -240 544
WIRE -752 640 -752 -272
WIRE -320 640 -752 640
WIRE -64 640 -240 640
WIRE 576 640 416 640
WIRE 1072 640 1072 -272
WIRE 1072 640 656 640
WIRE -592 736 -672 736
WIRE -512 736 -592 736
WIRE -384 736 -512 736
WIRE -288 736 -384 736
WIRE -64 736 -288 736
WIRE 608 736 416 736
WIRE 752 736 608 736
WIRE 848 736 752 736
WIRE 912 736 848 736
WIRE 960 736 912 736
WIRE -672 752 -672 736
WIRE -384 752 -384 736
WIRE -288 752 -288 736
WIRE 608 752 608 736
WIRE 752 752 752 736
WIRE 960 752 960 736
WIRE -288 832 -288 816
WIRE -64 832 -288 832
WIRE 608 832 608 816
WIRE 608 832 416 832
WIRE -672 848 -672 832
WIRE -384 848 -384 816
WIRE -288 848 -288 832
WIRE 608 848 608 832
WIRE 752 848 752 816
WIRE 960 848 960 832
WIRE -288 944 -288 928
WIRE 608 944 608 928
WIRE -160 1024 -176 1024
WIRE -64 1024 -96 1024
WIRE 448 1024 416 1024
WIRE 528 1024 512 1024
WIRE 448 1120 416 1120
WIRE 528 1120 512 1120
WIRE -512 1216 -512 736
WIRE -320 1216 -512 1216
WIRE -64 1216 -240 1216
WIRE 592 1216 416 1216
WIRE 848 1216 848 736
WIRE 848 1216 672 1216
WIRE -320 1312 -352 1312
WIRE -64 1312 -240 1312
WIRE 176 1440 176 1408
FLAG -864 -128 0
FLAG -288 176 0
FLAG -672 80 0
FLAG -400 80 0
FLAG 176 1440 0
FLAG -176 256 0
FLAG -352 544 0
FLAG 608 176 0
FLAG 944 80 0
FLAG 720 80 0
FLAG 528 256 0
FLAG -608 -32 OUT1
FLAG 896 -32 OUT2
FLAG -784 -272 IN
FLAG -288 944 0
FLAG -672 848 0
FLAG -384 848 0
FLAG -592 736 OUT3
FLAG 528 352 0
FLAG 528 1120 0
FLAG -176 1024 0
FLAG 528 1024 0
FLAG -352 1312 0
FLAG 608 944 0
FLAG 960 848 0
FLAG 752 848 0
FLAG 912 736 OUT4
SYMBOL voltage -864 -256 R0
WINDOW 123 0 0 Left 2
WINDOW 39 0 0 Left 2
SYMATTR InstName V1
SYMATTR Value 12
SYMBOL res -304 64 R0
SYMATTR InstName R1
SYMATTR Value 47.5K
SYMBOL cap -416 -16 R0
WINDOW 123 38 97 Left 2
WINDOW 3 36 68 Left 2
WINDOW 0 38 14 Left 2
SYMATTR Value2 x2
SYMATTR Value 47µ
SYMATTR InstName C2
SYMATTR SpiceLine Rser=7m
SYMBOL cap -96 240 R90
WINDOW 0 0 32 VBottom 2
WINDOW 3 32 32 VTop 2
SYMATTR InstName C3
SYMATTR Value 1n
SYMBOL res -224 528 R90
WINDOW 0 0 56 VBottom 2
WINDOW 3 32 56 VTop 2
SYMATTR InstName R2
SYMATTR Value 28K
SYMBOL res 592 64 R0
SYMATTR InstName R3
SYMATTR Value 78.7K
SYMBOL cap 704 -16 R0
WINDOW 123 44 98 Left 2
WINDOW 3 38 72 Left 2
WINDOW 0 34 10 Left 2
SYMATTR Value2 x2
SYMATTR Value 47µ
SYMATTR InstName C5
SYMATTR SpiceLine Rser=7m
SYMBOL res -688 -32 R0
SYMATTR InstName Rload1
SYMATTR Value 5
SYMBOL res 928 -32 R0
SYMATTR InstName Rload2
SYMATTR Value 3.3
SYMBOL cap -304 -16 R0
SYMATTR InstName C1
SYMATTR Value 100p
SYMBOL res -336 464 R270
WINDOW 0 32 56 VTop 2
WINDOW 3 0 56 VBottom 2
SYMATTR InstName R4
SYMATTR Value 100K
SYMBOL res -224 -144 R90
WINDOW 0 0 56 VBottom 2
WINDOW 3 32 56 VTop 2
SYMATTR InstName R5
SYMATTR Value 1Meg
SYMBOL res -336 656 R270
WINDOW 0 32 56 VTop 2
WINDOW 3 0 56 VBottom 2
SYMATTR InstName R6
SYMATTR Value 1Meg
SYMBOL res -336 1232 R270
WINDOW 0 32 56 VTop 2
WINDOW 3 0 56 VBottom 2
SYMATTR InstName R7
SYMATTR Value 100K
SYMBOL res -304 832 R0
SYMATTR InstName R8
SYMATTR Value 280K
SYMBOL cap -400 752 R0
WINDOW 123 42 98 Left 2
WINDOW 3 39 73 Left 2
WINDOW 0 40 13 Left 2
SYMATTR Value2 x2
SYMATTR Value 47µ
SYMATTR InstName C8
SYMATTR SpiceLine Rser=7m
SYMBOL res -688 736 R0
SYMATTR InstName Rload3
SYMATTR Value 1.5
SYMBOL cap -304 752 R0
SYMATTR InstName C10
SYMATTR Value 220p
SYMBOL cap 448 272 R270
WINDOW 0 32 32 VTop 2
WINDOW 3 0 32 VBottom 2
SYMATTR InstName C6
SYMATTR Value 1n
SYMBOL cap 592 -16 R0
SYMATTR InstName C4
SYMATTR Value 100p
SYMBOL res 688 1200 R90
WINDOW 0 0 56 VBottom 2
WINDOW 3 32 56 VTop 2
SYMATTR InstName R9
SYMATTR Value 100K
SYMBOL res 672 432 R90
WINDOW 0 0 56 VBottom 2
WINDOW 3 32 56 VTop 2
SYMATTR InstName R10
SYMATTR Value 100K
SYMBOL cap 448 368 R270
WINDOW 0 32 32 VTop 2
WINDOW 3 0 32 VBottom 2
SYMATTR InstName C7
SYMATTR Value 1µ
SYMBOL cap 448 1136 R270
WINDOW 0 32 32 VTop 2
WINDOW 3 0 32 VBottom 2
SYMATTR InstName C9
SYMATTR Value 1µ
SYMBOL res 656 -144 R90
WINDOW 0 0 56 VBottom 2
WINDOW 3 32 56 VTop 2
SYMATTR InstName R11
SYMATTR Value 1Meg
SYMBOL cap -96 1008 R90
WINDOW 0 0 32 VBottom 2
WINDOW 3 32 32 VTop 2
SYMATTR InstName C11
SYMATTR Value 1n
SYMBOL cap 448 1040 R270
WINDOW 0 32 32 VTop 2
WINDOW 3 0 32 VBottom 2
SYMATTR InstName C12
SYMATTR Value 1n
SYMBOL res -224 1296 R90
WINDOW 0 0 56 VBottom 2
WINDOW 3 32 56 VTop 2
SYMATTR InstName R12
SYMATTR Value 100K
SYMBOL res 592 832 R0
SYMATTR InstName R13
SYMATTR Value 499K
SYMBOL cap 736 752 R0
WINDOW 123 43 97 Left 2
WINDOW 3 40 70 Left 2
WINDOW 0 38 14 Left 2
SYMATTR Value2 x2
SYMATTR Value 47µ
SYMATTR InstName C13
SYMATTR SpiceLine Rser=7m
SYMBOL res 944 736 R0
SYMATTR InstName Rload4
SYMATTR Value 1.2
SYMBOL cap 592 752 R0
SYMATTR InstName C14
SYMATTR Value 680p
SYMBOL res 672 624 R90
WINDOW 0 0 56 VBottom 2
WINDOW 3 32 56 VTop 2
SYMATTR InstName R14
SYMATTR Value 1Meg
SYMBOL LTM8060 176 608 R0
SYMATTR InstName U1
TEXT 552 1384 Left 2 !.tran 0.8m startup
TEXT -464 528 Top 2 ;fsw=1.2MHz
TEXT -464 1296 Top 2 ;fsw=400kHz
