Version 4
SHEET 1 2520 1864
WIRE -160 944 -208 944
WIRE 176 944 -160 944
WIRE 304 944 176 944
WIRE -208 976 -208 944
WIRE 176 976 176 944
WIRE 304 976 304 944
WIRE 96 1024 -16 1024
WIRE -208 1088 -208 1056
WIRE -16 1120 -16 1024
WIRE -16 1120 -208 1120
WIRE 96 1120 64 1120
WIRE 672 1120 384 1120
WIRE 752 1120 672 1120
WIRE 800 1120 752 1120
WIRE -208 1136 -208 1120
WIRE 672 1136 672 1120
WIRE 800 1136 800 1120
WIRE 64 1216 64 1120
WIRE 96 1216 64 1216
WIRE 496 1216 384 1216
WIRE -208 1232 -208 1216
WIRE 496 1232 496 1216
WIRE 672 1232 672 1200
WIRE 800 1232 800 1216
WIRE 0 1312 -16 1312
WIRE 96 1312 80 1312
WIRE 496 1328 496 1312
WIRE 0 1408 -16 1408
WIRE 96 1408 64 1408
WIRE 672 1408 384 1408
WIRE 752 1408 672 1408
WIRE 800 1408 752 1408
WIRE 672 1424 672 1408
WIRE 800 1424 800 1408
WIRE 0 1504 -16 1504
WIRE 96 1504 64 1504
WIRE 592 1504 384 1504
WIRE 592 1520 592 1504
WIRE 672 1520 672 1488
WIRE 800 1520 800 1504
WIRE 432 1600 384 1600
WIRE 496 1600 432 1600
WIRE 496 1616 496 1600
WIRE 592 1616 592 1600
WIRE 416 1696 384 1696
WIRE 496 1696 496 1680
FLAG 416 1696 0
FLAG 800 1520 0
FLAG 752 1408 OUT2
FLAG 800 1232 0
FLAG 752 1120 OUT1
FLAG -16 1504 0
FLAG -16 1408 0
FLAG 496 1696 0
FLAG -208 1088 0
FLAG -160 944 IN
FLAG -16 1312 0
FLAG 432 1600 OUT2
FLAG -208 1232 0
FLAG 672 1232 0
FLAG 496 1328 0
FLAG 672 1520 0
FLAG 592 1616 0
SYMBOL res 784 1408 R0
SYMATTR InstName Rload2
SYMATTR Value 2.5
SYMBOL res 784 1120 R0
SYMATTR InstName Rload1
SYMATTR Value 1.2
SYMBOL cap 480 1616 R0
SYMATTR InstName C25
SYMATTR Value 1µ
SYMBOL voltage -208 960 R0
WINDOW 123 0 0 Left 2
WINDOW 39 0 0 Left 2
SYMATTR InstName V1
SYMATTR Value 12
SYMBOL res 480 1216 R0
SYMATTR InstName R1
SYMATTR Value 249K
SYMBOL cap 64 1392 R90
WINDOW 0 0 32 VBottom 2
WINDOW 3 32 32 VTop 2
SYMATTR InstName C1
SYMATTR Value 1n
SYMBOL cap 64 1488 R90
WINDOW 0 0 32 VBottom 2
WINDOW 3 32 32 VTop 2
SYMATTR InstName C2
SYMATTR Value 1n
SYMBOL cap 656 1136 R0
WINDOW 123 38 74 Left 2
WINDOW 3 37 50 Left 2
WINDOW 0 34 10 Left 2
SYMATTR Value2 x2
SYMATTR Value 47µ
SYMATTR InstName C3
SYMATTR SpiceLine Rser=10m
SYMBOL cap 656 1424 R0
WINDOW 123 43 74 Left 2
WINDOW 3 43 50 Left 2
WINDOW 0 39 8 Left 2
SYMATTR Value2 x2
SYMATTR Value 47µ
SYMATTR InstName C4
SYMATTR SpiceLine Rser=10m
SYMBOL res 96 1296 R90
WINDOW 0 0 56 VBottom 2
WINDOW 3 32 56 VTop 2
SYMATTR InstName R3
SYMATTR Value 46.4k
SYMBOL res 576 1504 R0
SYMATTR InstName R2
SYMATTR Value 78.7K
SYMBOL LTM8078 240 1360 R0
SYMATTR InstName U1
SYMBOL voltage -208 1120 R0
WINDOW 123 0 0 Left 2
WINDOW 39 0 0 Left 2
WINDOW 3 0 142 Center 2
SYMATTR Value PULSE(0 3.3 0.5m 1n 1n 2m 3m 1)
SYMATTR InstName V2
TEXT 136 1784 Left 2 !.tran 1.6m startup
