Version 4
SHEET 1 2644 1404
WIRE -544 -16 -656 -16
WIRE -288 -16 -544 -16
WIRE -176 -16 -288 -16
WIRE -144 -16 -176 -16
WIRE 384 -16 288 -16
WIRE 496 -16 384 -16
WIRE 512 -16 496 -16
WIRE 608 -16 592 -16
WIRE 688 -16 608 -16
WIRE 896 -16 688 -16
WIRE 912 -16 896 -16
WIRE 384 0 384 -16
WIRE 688 0 688 -16
WIRE -656 32 -656 -16
WIRE -288 32 -288 -16
WIRE -544 48 -544 -16
WIRE 912 48 912 -16
WIRE -176 80 -176 -16
WIRE -144 80 -176 80
WIRE 320 80 288 80
WIRE 384 80 384 64
WIRE 320 112 320 80
WIRE 688 112 688 80
WIRE 688 112 320 112
WIRE -656 144 -656 112
WIRE 688 144 688 112
WIRE 912 160 912 128
WIRE -400 176 -432 176
WIRE -288 176 -288 112
WIRE -288 176 -320 176
WIRE -144 176 -288 176
WIRE 384 176 288 176
WIRE 496 176 496 -16
WIRE 496 176 384 176
WIRE 384 192 384 176
WIRE 688 256 688 224
WIRE -544 272 -544 128
WIRE -144 272 -544 272
WIRE 384 272 384 256
WIRE 384 272 288 272
WIRE 608 272 608 -16
WIRE 608 272 384 272
WIRE -544 288 -544 272
WIRE -240 368 -272 368
WIRE -144 368 -176 368
WIRE -544 400 -544 368
WIRE -144 560 -160 560
WIRE 336 560 288 560
WIRE 432 560 400 560
WIRE 320 656 288 656
WIRE 432 656 400 656
WIRE 80 752 80 736
FLAG -656 144 0
FLAG 688 256 0
FLAG 432 656 0
FLAG 432 560 0
FLAG -272 368 0
FLAG 384 80 0
FLAG -432 176 0
FLAG 912 160 0
FLAG -544 400 0
FLAG 80 752 0
FLAG 896 -16 OUT
FLAG -160 560 0
FLAG -656 -16 IN
SYMBOL voltage -656 16 R0
WINDOW 123 24 138 Left 2
WINDOW 39 24 117 Left 2
SYMATTR Value 12
SYMATTR InstName V1
SYMBOL res 672 -16 R0
SYMATTR InstName R6
SYMATTR Value 100k
SYMBOL res 672 128 R0
SYMATTR InstName R7
SYMATTR Value 9.09k
SYMBOL cap 368 0 R0
WINDOW 0 24 10 Left 2
SYMATTR InstName C10
SYMATTR Value 10µ
SYMATTR SpiceLine V=16 Irms=13.8 Rser=0.00468332 Lser=0 mfg="KEMET" pn="C1210C106K4RAC" type="X7R"
SYMBOL cap 368 192 R0
SYMATTR InstName C11
SYMATTR Value 0.1µ
SYMBOL cap -176 352 R90
WINDOW 0 0 32 VBottom 2
WINDOW 3 32 32 VTop 2
SYMATTR InstName C13
SYMATTR Value 2.2µ
SYMBOL res 496 0 R270
WINDOW 0 32 56 VTop 2
WINDOW 3 0 56 VBottom 2
SYMATTR InstName R8
SYMATTR Value 0.1
SYMBOL res 304 640 M90
WINDOW 0 0 56 VBottom 2
WINDOW 3 32 56 VTop 2
SYMATTR InstName R10
SYMATTR Value 14.3k
SYMBOL cap 336 544 M90
WINDOW 0 0 32 VBottom 2
WINDOW 3 32 32 VTop 2
SYMATTR InstName C14
SYMATTR Value 0.01µ
SYMBOL res -304 16 R0
SYMATTR InstName R13
SYMATTR Value 121k
SYMBOL res -304 160 R90
WINDOW 0 0 56 VBottom 2
WINDOW 3 32 56 VTop 2
SYMATTR InstName R14
SYMATTR Value 61.9k
SYMBOL res 896 32 R0
SYMATTR InstName Rload
SYMATTR Value 24
SYMBOL res -560 32 R0
SYMATTR InstName R2
SYMATTR Value 590k
SYMBOL res -560 272 R0
SYMATTR InstName R3
SYMATTR Value 61.9k
SYMBOL LTM8083 80 336 R0
SYMATTR InstName U1
TEXT 368 768 Left 2 !.tran 1.6m startup
