Version 4
SHEET 1 1064 840
WIRE -176 -48 -272 -48
WIRE 80 -48 -176 -48
WIRE 208 -48 80 -48
WIRE -272 -32 -272 -48
WIRE 80 -16 80 -48
WIRE 208 -16 208 -48
WIRE -176 32 -176 -48
WIRE -32 32 -176 32
WIRE 480 32 320 32
WIRE 528 32 480 32
WIRE 624 32 528 32
WIRE 528 48 528 32
WIRE 624 48 624 32
WIRE -272 64 -272 48
WIRE 352 112 320 112
WIRE 528 144 528 112
WIRE 624 144 624 128
WIRE -128 192 -144 192
WIRE -32 192 -48 192
WIRE 352 192 320 192
WIRE 480 192 480 32
WIRE 480 192 432 192
WIRE -32 272 -64 272
WIRE -32 352 -192 352
WIRE -176 432 -176 32
WIRE -32 432 -176 432
WIRE 528 432 528 400
WIRE 528 432 320 432
WIRE 624 432 528 432
WIRE 528 448 528 432
WIRE 624 448 624 432
WIRE 480 512 320 512
WIRE 480 544 480 512
WIRE 528 544 528 512
WIRE 528 544 480 544
WIRE 624 544 624 528
WIRE 624 544 528 544
WIRE -128 592 -144 592
WIRE -32 592 -48 592
WIRE 352 592 320 592
WIRE 480 592 480 544
WIRE 480 592 432 592
WIRE -192 672 -192 352
WIRE -32 672 -192 672
WIRE 144 816 144 800
FLAG -272 64 0
FLAG -144 192 0
FLAG 352 112 0
FLAG 624 144 0
FLAG 528 144 0
FLAG -272 -48 IN
FLAG 624 32 OUT1
FLAG -144 592 0
FLAG 144 816 0
FLAG 624 544 OUT2
FLAG 528 400 0
FLAG -64 272 0
SYMBOL voltage -272 -48 R0
WINDOW 123 0 0 Left 2
WINDOW 39 0 0 Left 2
SYMATTR InstName V1
SYMATTR Value 12
SYMBOL res -32 176 R90
WINDOW 0 0 56 VBottom 2
WINDOW 3 32 56 VTop 2
SYMATTR InstName R1
SYMATTR Value 80.6K
SYMBOL res 448 176 R90
WINDOW 0 0 56 VBottom 2
WINDOW 3 32 56 VTop 2
SYMATTR InstName R2
SYMATTR Value 130K
SYMBOL res 608 32 R0
SYMATTR InstName Rload1
SYMATTR Value 24
SYMBOL res -32 576 R90
WINDOW 0 0 56 VBottom 2
WINDOW 3 32 56 VTop 2
SYMATTR InstName R3
SYMATTR Value 80.6K
SYMBOL res 448 576 R90
WINDOW 0 0 56 VBottom 2
WINDOW 3 32 56 VTop 2
SYMATTR InstName R4
SYMATTR Value 143K
SYMBOL res 608 432 R0
SYMATTR InstName Rload2
SYMATTR Value 24
SYMBOL cap 512 48 R0
SYMATTR InstName C1
SYMATTR Value 22µ
SYMATTR SpiceLine Rser=5m
SYMBOL cap 512 448 R0
SYMATTR InstName C2
SYMATTR Value 47µ
SYMATTR SpiceLine Rser=7m
SYMBOL LTM8049 144 368 R0
SYMATTR InstName U1
TEXT 424 712 Left 2 !.tran 1.2m startup
