Version 4
SHEET 1 912 680
WIRE 32 -32 16 -32
WIRE 112 -32 32 -32
WIRE 176 -32 112 -32
WIRE 512 -32 464 -32
WIRE 624 -32 592 -32
WIRE 720 -32 624 -32
WIRE 800 -32 720 -32
WIRE 832 -32 800 -32
WIRE 624 -16 624 -32
WIRE 832 -16 832 -32
WIRE 16 16 16 -32
WIRE 624 64 624 48
WIRE 832 80 832 64
WIRE 112 96 112 -32
WIRE 176 96 112 96
WIRE 720 112 720 -32
WIRE 720 112 464 112
WIRE 16 128 16 96
WIRE 176 224 80 224
WIRE 80 240 80 224
WIRE 80 320 80 304
WIRE 320 384 320 368
FLAG 16 128 0
FLAG 80 320 0
FLAG 320 384 0
FLAG 624 64 0
FLAG 832 80 0
FLAG 32 -32 vIN
FLAG 800 -32 vOUT
SYMBOL MAX17640A 320 144 R0
SYMATTR InstName U1
SYMBOL voltage 16 0 R0
WINDOW 123 0 0 Left 0
WINDOW 39 0 0 Left 0
SYMATTR InstName V1
SYMATTR Value 12
SYMBOL cap 64 240 R0
SYMATTR InstName C1
SYMATTR Value 1µ
SYMBOL ind 496 -16 R270
WINDOW 0 32 56 VTop 2
WINDOW 3 5 56 VBottom 2
SYMATTR InstName L1
SYMATTR Value 47µ
SYMATTR SpiceLine Rser=0.27
SYMBOL cap 608 -16 R0
SYMATTR InstName C2
SYMATTR Value 22µ
SYMBOL res 816 -32 R0
SYMATTR InstName Rload
SYMATTR Value 8.25
TEXT 72 448 Left 2 !.tran 5m startup
