Version 4
SHEET 1 936 832
WIRE 176 96 176 64
WIRE 272 96 272 64
WIRE -272 144 -272 128
WIRE -16 160 -48 160
WIRE 96 160 64 160
WIRE 128 160 96 160
WIRE 368 192 320 192
WIRE 528 192 368 192
WIRE 624 192 528 192
WIRE -128 224 -160 224
WIRE 96 224 -48 224
WIRE 128 224 96 224
WIRE 528 224 528 192
WIRE -272 240 -272 224
WIRE 352 240 320 240
WIRE 448 240 352 240
WIRE 624 240 624 192
WIRE 448 256 448 240
WIRE 96 288 -48 288
WIRE 128 288 96 288
WIRE 352 288 320 288
WIRE 368 288 352 288
WIRE 368 304 368 288
WIRE 96 320 48 320
WIRE 128 320 96 320
WIRE 528 320 528 304
WIRE 624 320 624 304
WIRE -272 336 -272 320
WIRE 448 336 448 320
WIRE 368 384 368 368
WIRE -48 400 -48 288
WIRE 48 400 48 320
WIRE 224 416 224 400
WIRE -272 432 -272 416
WIRE -48 528 -48 480
WIRE 48 528 48 480
FLAG -272 432 0
FLAG -272 240 0
FLAG -272 128 +V
FLAG -272 320 VL
FLAG -48 160 0
FLAG -48 528 0
FLAG 528 320 0
FLAG 624 320 0
FLAG 272 64 +V
FLAG 176 64 VL
FLAG 224 416 0
FLAG 96 160 vA1
FLAG 96 320 vEN
FLAG 368 192 vCOM
FLAG 448 336 0
FLAG 368 384 0
FLAG 352 240 vVP
FLAG 352 288 vVN
FLAG -160 224 0
FLAG 96 224 vA2
FLAG 48 528 0
FLAG 96 288 vSA
SYMBOL voltage -272 128 R0
WINDOW 123 0 0 Left 0
WINDOW 39 0 0 Left 0
SYMATTR InstName V1
SYMATTR Value 5
SYMBOL voltage -272 320 R0
WINDOW 123 0 0 Left 0
WINDOW 39 0 0 Left 0
SYMATTR InstName V2
SYMATTR Value 3.3
SYMBOL voltage 80 160 M270
WINDOW 0 32 56 VTop 2
WINDOW 3 -32 56 VBottom 2
WINDOW 123 0 0 Left 0
WINDOW 39 0 0 Left 0
SYMATTR InstName V3
SYMATTR Value 25
SYMBOL voltage 48 384 R0
WINDOW 3 19 116 Left 2
WINDOW 123 0 0 Left 0
WINDOW 39 0 0 Left 0
SYMATTR Value 3.3
SYMATTR InstName V4
SYMBOL res 512 208 R0
SYMATTR InstName R1
SYMATTR Value 10k
SYMBOL cap 608 240 R0
SYMATTR InstName C1
SYMATTR Value 15p
SYMBOL cap 432 256 R0
SYMATTR InstName C2
SYMATTR Value 10n
SYMBOL cap 352 304 R0
SYMATTR InstName C3
SYMATTR Value 10n
SYMBOL MAX14779 224 240 R0
WINDOW 0 78 -146 Bottom 2
SYMATTR InstName U1
SYMBOL voltage -32 224 M270
WINDOW 0 32 56 VTop 2
WINDOW 3 -32 56 VBottom 2
WINDOW 123 0 0 Left 0
WINDOW 39 0 0 Left 0
SYMATTR InstName V5
SYMATTR Value 5
SYMBOL voltage -48 384 R0
WINDOW 123 0 0 Left 0
WINDOW 39 0 0 Left 0
WINDOW 3 30 177 Left 2
SYMATTR Value PULSE(0 3.3 5m 20n 20n 5m 10m)
SYMATTR InstName V6
TEXT -280 504 Left 2 !.tran 30m
TEXT -296 -80 Left 2 ;Note:\nSwitch shown for a logic 0 input\nOnly one channel included\nCharge Injection not included
