Version 4
SHEET 1 1800 1396
WIRE -96 -368 -272 -368
WIRE -16 -368 -96 -368
WIRE 320 -368 272 -368
WIRE 480 -368 320 -368
WIRE 608 -368 480 -368
WIRE -272 -352 -272 -368
WIRE 480 -352 480 -368
WIRE 608 -352 608 -368
WIRE -96 -336 -96 -368
WIRE 320 -336 320 -368
WIRE 768 -336 656 -336
WIRE 768 -320 768 -336
WIRE -272 -256 -272 -272
WIRE 480 -256 480 -288
WIRE 608 -256 608 -272
WIRE -96 -240 -96 -256
WIRE -16 -240 -96 -240
WIRE 320 -240 320 -272
WIRE 320 -240 272 -240
WIRE -96 -224 -96 -240
WIRE 768 -224 768 -240
WIRE 320 -176 272 -176
WIRE 320 -160 320 -176
WIRE -96 -112 -96 -144
WIRE -16 -64 -96 -64
WIRE 320 -64 320 -96
WIRE -96 -48 -96 -64
WIRE 480 -16 272 -16
WIRE 576 -16 480 -16
WIRE 608 -16 576 -16
WIRE 480 16 480 -16
WIRE 576 16 576 -16
WIRE -96 48 -96 16
WIRE -16 80 -304 80
WIRE 320 80 272 80
WIRE 320 96 320 80
WIRE 480 112 480 96
WIRE 576 112 576 80
WIRE -16 144 -208 144
WIRE -304 160 -304 80
WIRE -208 160 -208 144
WIRE -16 208 -96 208
WIRE 320 208 320 176
WIRE 320 208 272 208
WIRE -96 224 -96 208
WIRE 320 240 320 208
WIRE -304 272 -304 240
WIRE -256 272 -304 272
WIRE -208 272 -208 240
WIRE -208 272 -256 272
WIRE -256 304 -256 272
WIRE -96 336 -96 304
WIRE -256 400 -256 384
FLAG 320 240 0
FLAG -272 -256 0
FLAG 480 -256 0
FLAG 608 -368 OUT
FLAG -272 -368 IN
FLAG 608 -256 0
FLAG 656 -288 0
FLAG 768 -224 0
FLAG -96 -112 0
FLAG 480 112 0
FLAG 320 -64 0
FLAG 576 112 0
FLAG 608 -16 ILOAD
FLAG -96 48 0
FLAG -256 400 0
FLAG -96 336 0
SYMBOL voltage -272 -368 R0
WINDOW 123 0 0 Left 2
WINDOW 39 0 0 Left 2
SYMATTR InstName V1
SYMATTR Value 12
SYMBOL cap 464 -352 R0
SYMATTR InstName C2
SYMATTR Value 1500µ
SYMBOL res -112 -240 R0
SYMATTR InstName R1
SYMATTR Value 2.26k
SYMBOL res 304 80 R0
SYMATTR InstName R5
SYMATTR Value 93.1K
SYMBOL cap 304 -336 R0
WINDOW 0 28 11 Left 2
SYMATTR InstName C1
SYMATTR Value 0.22µ
SYMBOL sw 608 -256 R180
WINDOW 0 -23 102 Right 2
WINDOW 3 -26 2 Right 2
SYMATTR InstName S1
SYMATTR Value SHORT
SYMBOL voltage 768 -336 R0
WINDOW 123 0 0 Left 2
WINDOW 39 0 0 Left 2
SYMATTR InstName V3
SYMATTR Value PULSE(0 1 240m 1m 1m 10m)
SYMBOL res 464 0 R0
SYMATTR InstName R6
SYMATTR Value 4.42k
SYMBOL res -112 -352 R0
SYMATTR InstName R4
SYMATTR Value 20k
SYMBOL cap 304 -96 M180
WINDOW 0 24 56 Left 2
WINDOW 3 24 8 Left 2
SYMATTR InstName C5
SYMATTR Value 1µ
SYMBOL cap 560 16 R0
WINDOW 0 28 11 Left 2
SYMATTR InstName C3
SYMATTR Value 10n
SYMBOL cap -112 16 M180
WINDOW 0 24 56 Left 2
WINDOW 3 24 8 Left 2
SYMATTR InstName C4
SYMATTR Value 47n
SYMBOL voltage -256 288 R0
WINDOW 123 0 0 Left 2
WINDOW 39 0 0 Left 2
SYMATTR InstName V2
SYMATTR Value 5
SYMBOL res -320 144 R0
SYMATTR InstName R2
SYMATTR Value 10K
SYMBOL res -224 144 R0
SYMATTR InstName R3
SYMATTR Value 10K
SYMBOL res -112 208 R0
SYMATTR InstName R7
SYMATTR Value 10K
SYMBOL MAX16545C 128 -80 R0
SYMATTR InstName U1
TEXT 488 -176 Left 2 !.model SHORT SW(Ron=10m Roff=1K Vt=.5 Vh=-.4)
TEXT 488 -136 Left 2 !.tran 300m startup
