Version 4
SHEET 1 880 680
WIRE 176 80 176 48
WIRE 272 80 272 48
WIRE -208 144 -208 128
WIRE -48 160 -80 160
WIRE 96 160 32 160
WIRE 128 160 96 160
WIRE 352 160 320 160
WIRE 528 160 352 160
WIRE 624 160 528 160
WIRE 528 192 528 160
WIRE 352 208 320 208
WIRE 448 208 352 208
WIRE 624 208 624 160
WIRE 96 224 -16 224
WIRE 128 224 96 224
WIRE 448 224 448 208
WIRE -208 240 -208 224
WIRE 352 240 320 240
WIRE 368 240 352 240
WIRE 368 256 368 240
WIRE 528 288 528 272
WIRE 624 288 624 272
WIRE 448 304 448 288
WIRE -208 336 -208 320
WIRE -16 336 -16 224
WIRE 368 336 368 320
WIRE 224 368 224 352
WIRE -208 432 -208 416
WIRE -16 464 -16 416
FLAG -208 432 0
FLAG -208 240 0
FLAG -208 128 +V
FLAG -208 320 VL
FLAG -80 160 0
FLAG -16 464 0
FLAG 528 288 0
FLAG 624 288 0
FLAG 272 48 +V
FLAG 176 48 VL
FLAG 224 368 0
FLAG 96 160 vA
FLAG 96 224 vEN
FLAG 352 160 vB
FLAG 448 304 0
FLAG 368 336 0
FLAG 352 208 vVP
FLAG 352 240 vVN
SYMBOL voltage -208 128 R0
WINDOW 123 0 0 Left 0
WINDOW 39 0 0 Left 0
SYMATTR InstName V1
SYMATTR Value 5
SYMBOL voltage -208 320 R0
WINDOW 123 0 0 Left 0
WINDOW 39 0 0 Left 0
SYMATTR InstName V2
SYMATTR Value 3.3
SYMBOL voltage 48 160 M270
WINDOW 0 32 56 VTop 2
WINDOW 3 -32 56 VBottom 2
WINDOW 123 0 0 Left 0
WINDOW 39 0 0 Left 0
SYMATTR InstName V3
SYMATTR Value 10
SYMBOL voltage -16 320 R0
WINDOW 3 19 116 Left 2
WINDOW 123 0 0 Left 0
WINDOW 39 0 0 Left 0
SYMATTR Value PULSE(0 3.3 10n 20n 20n 5m 10m)
SYMATTR InstName V4
SYMBOL res 512 176 R0
SYMATTR InstName R1
SYMATTR Value 10k
SYMBOL cap 608 208 R0
SYMATTR InstName C1
SYMATTR Value 15p
SYMBOL MAX14774 224 208 R0
SYMATTR InstName U1
SYMBOL cap 432 224 R0
SYMATTR InstName C2
SYMATTR Value 10n
SYMBOL cap 352 256 R0
SYMATTR InstName C3
SYMATTR Value 10n
TEXT -32 512 Left 2 !.tran 30m
TEXT -256 -88 Left 2 ;Note:\nSwitch shown for a logic 0 input\nOnly one channel included\nCharge Injection not included
