Version 4
SHEET 1 1416 868
WIRE -32 -48 -96 -48
WIRE 16 -48 -32 -48
WIRE 48 -48 16 -48
WIRE 160 -48 128 -48
WIRE 160 0 160 -48
WIRE -96 16 -96 -48
WIRE 16 64 16 -48
WIRE 48 64 16 64
WIRE 320 64 272 64
WIRE 448 64 320 64
WIRE 512 64 448 64
WIRE 560 64 512 64
WIRE 320 80 320 64
WIRE 560 80 560 64
WIRE 448 96 448 64
WIRE -96 128 -96 96
WIRE 16 176 16 64
WIRE 48 176 16 176
WIRE 320 176 320 160
WIRE 320 176 272 176
WIRE 448 176 448 160
WIRE 560 176 560 160
WIRE 320 192 320 176
WIRE 160 256 160 240
WIRE 320 288 320 272
FLAG -96 128 0
FLAG 320 288 0
FLAG 448 176 0
FLAG 560 176 0
FLAG -32 -48 IN
FLAG 512 64 OUT
FLAG 160 256 0
SYMBOL VOLTAGE -96 0 R0
WINDOW 123 0 0 Left 0
WINDOW 39 0 0 Left 0
SYMATTR InstName V1
SYMATTR Value 3.6
SYMBOL ind2 32 -32 R270
WINDOW 0 32 56 VTop 2
WINDOW 3 5 56 VBottom 2
SYMATTR InstName L1
SYMATTR Value 10µ
SYMATTR Type ind
SYMBOL res 304 176 R0
SYMATTR InstName R5
SYMATTR Value 402K
SYMBOL cap 432 96 R0
WINDOW 123 42 54 Left 2
WINDOW 0 41 3 Left 2
WINDOW 3 37 29 Left 2
SYMATTR InstName C3
SYMATTR Value 4.7µ
SYMBOL res 304 64 R0
SYMATTR InstName R3
SYMATTR Value 3.48Meg
SYMBOL res 544 64 R0
SYMATTR InstName R4
SYMATTR Value 1.2K
SYMBOL MAX17291B 160 128 R0
SYMATTR InstName U2
TEXT 104 344 Left 2 !.tran 10m startup
