Version 4
SHEET 1 880 680
WIRE -528 -208 -640 -208
WIRE -416 -208 -528 -208
WIRE -304 -208 -416 -208
WIRE -224 -208 -304 -208
WIRE 192 -208 64 -208
WIRE 304 -208 192 -208
WIRE 464 -208 352 -208
WIRE -640 -192 -640 -208
WIRE 192 -192 192 -208
WIRE 304 -192 304 -208
WIRE 464 -192 464 -208
WIRE 352 -176 352 -208
WIRE -304 -160 -304 -208
WIRE -224 -160 -304 -160
WIRE -224 -112 -304 -112
WIRE -640 -96 -640 -112
WIRE -304 -96 -304 -112
WIRE 192 -96 192 -128
WIRE 304 -96 304 -112
WIRE 464 -96 464 -112
WIRE -528 -80 -528 -208
WIRE -304 0 -304 -16
WIRE -528 32 -528 0
WIRE -224 32 -528 32
WIRE 176 32 64 32
WIRE 368 32 256 32
WIRE -528 48 -528 32
WIRE -416 48 -416 -208
WIRE 368 64 368 32
WIRE 112 112 64 112
WIRE 112 144 112 112
WIRE -528 160 -528 128
WIRE -416 160 -416 128
WIRE -224 160 -416 160
WIRE 368 160 368 144
WIRE -416 176 -416 160
WIRE 112 192 64 192
WIRE -224 224 -304 224
WIRE -304 240 -304 224
WIRE 112 240 112 192
WIRE 112 240 64 240
WIRE 112 288 64 288
WIRE -416 304 -416 256
WIRE -304 336 -304 320
WIRE -224 336 -304 336
WIRE 112 336 112 288
WIRE 112 336 64 336
WIRE -304 368 -304 336
WIRE 112 368 112 336
FLAG -640 -96 0
FLAG 192 -96 0
FLAG 304 -208 OUT
FLAG -640 -208 IN
FLAG 304 -96 0
FLAG 352 -128 0
FLAG 464 -96 0
FLAG -416 304 0
FLAG 368 160 0
FLAG -304 0 0
FLAG -528 160 0
FLAG -304 368 0
FLAG 112 144 0
FLAG 112 368 0
SYMBOL voltage -640 -208 R0
WINDOW 123 0 0 Left 2
WINDOW 39 0 0 Left 2
SYMATTR InstName V1
SYMATTR Value 24
SYMBOL cap 176 -192 R0
SYMATTR InstName C1
SYMATTR Value 150µ
SYMBOL sw 304 -96 R180
WINDOW 0 -23 102 Right 2
WINDOW 3 -26 2 Right 2
SYMATTR InstName S1
SYMATTR Value SHORT
SYMBOL voltage 464 -208 R0
WINDOW 123 0 0 Left 2
WINDOW 39 0 0 Left 2
SYMATTR InstName V2
SYMATTR Value PULSE(0 1 70m 1m 1m 100m)
SYMBOL res 272 16 R90
WINDOW 0 0 56 VBottom 2
WINDOW 3 32 56 VTop 2
SYMATTR InstName R1
SYMATTR Value 20k
SYMBOL res -432 272 M180
WINDOW 0 36 76 Left 2
WINDOW 3 36 40 Left 2
SYMATTR InstName R2
SYMATTR Value 20k
SYMBOL res -320 224 R0
SYMATTR InstName R3
SYMATTR Value 6.19k
SYMBOL voltage 368 48 R0
WINDOW 123 0 0 Left 2
WINDOW 39 0 0 Left 2
SYMATTR InstName V3
SYMATTR Value 5
SYMBOL voltage -304 -112 R0
WINDOW 123 0 0 Left 2
WINDOW 39 0 0 Left 2
SYMATTR InstName V4
SYMATTR Value 2
SYMBOL res -544 -96 R0
SYMATTR InstName R4
SYMATTR Value 2.1Meg
SYMBOL res -544 32 R0
SYMATTR InstName R5
SYMATTR Value 200k
SYMBOL res -432 144 M180
WINDOW 0 36 76 Left 2
WINDOW 3 36 40 Left 2
SYMATTR InstName R6
SYMATTR Value 499k
SYMBOL MAX17523A -80 64 R0
SYMATTR InstName U1
TEXT 272 288 Left 2 !.model SHORT SW(Ron=4 Roff=100K Vt=.5 Vh=-.4)
TEXT 272 344 Left 2 !.tran 0.8 startup
