Version 4
SHEET 1 940 680
WIRE -224 -160 -256 -160
WIRE 48 -160 -224 -160
WIRE 208 -160 48 -160
WIRE 400 -160 288 -160
WIRE 464 -160 400 -160
WIRE 656 -160 528 -160
WIRE 768 -160 656 -160
WIRE 832 -160 768 -160
WIRE 848 -160 832 -160
WIRE 880 -160 848 -160
WIRE -256 -128 -256 -160
WIRE 768 -128 768 -160
WIRE 880 -128 880 -160
WIRE 400 -96 400 -160
WIRE 656 -64 656 -160
WIRE 656 -64 560 -64
WIRE 656 -32 656 -64
WIRE 768 -32 768 -64
WIRE 880 -32 880 -48
WIRE -96 -16 -112 -16
WIRE -16 -16 -32 -16
WIRE 64 -16 -16 -16
WIRE 352 -16 320 -16
WIRE 560 -16 560 -64
WIRE -256 0 -256 -48
WIRE -16 16 -16 -16
WIRE 400 48 400 0
WIRE 48 80 48 -160
WIRE 64 80 48 80
WIRE 560 80 560 48
WIRE 560 80 320 80
WIRE 656 80 656 48
WIRE 656 80 560 80
WIRE 560 112 560 80
WIRE 656 112 656 80
WIRE 48 176 48 80
WIRE 64 176 48 176
WIRE 336 176 320 176
WIRE 560 224 560 176
WIRE 656 224 656 192
WIRE -16 256 -16 96
WIRE 832 256 832 -160
WIRE 832 256 -16 256
FLAG 400 48 0
FLAG -256 0 0
FLAG -112 -16 0
FLAG 656 224 0
FLAG 560 224 0
FLAG 768 -32 0
FLAG 880 -32 0
FLAG -224 -160 IN
FLAG 848 -160 OUT
FLAG 336 176 0
SYMBOL ind 192 -144 R270
WINDOW 0 32 56 VTop 2
WINDOW 3 5 56 VBottom 2
SYMATTR InstName L1
SYMATTR Value 5.8µ
SYMATTR SpiceLine Rser=17m
SYMBOL nmos 352 -96 R0
SYMATTR InstName M1
SYMATTR Value FDC637AN
SYMBOL voltage -256 -144 R0
SYMATTR InstName V1
SYMATTR Value 1.8
SYMBOL cap -32 -32 R90
WINDOW 0 0 32 VBottom 2
WINDOW 3 32 32 VTop 2
SYMATTR InstName C1
SYMATTR Value 0.1µ
SYMBOL schottky 464 -144 R270
WINDOW 0 32 32 VTop 2
WINDOW 3 0 32 VBottom 2
SYMATTR InstName D1
SYMATTR Value MBR0530L
SYMATTR Description Diode
SYMATTR Type diode
SYMBOL res 640 -48 R0
SYMATTR InstName R1
SYMATTR Value 274K
SYMBOL res 640 96 R0
SYMATTR InstName R2
SYMATTR Value 90.9K
SYMBOL cap 544 -16 R0
SYMATTR InstName C2
SYMATTR Value 100p
SYMBOL cap 544 112 R0
SYMATTR InstName C3
SYMATTR Value 200p
SYMBOL cap 752 -128 R0
SYMATTR InstName C4
SYMATTR Value 150µ
SYMATTR SpiceLine Rser=40m
SYMBOL res 864 -144 R0
WINDOW 123 36 60 Left 2
SYMATTR InstName R3
SYMATTR Value 12.4
SYMBOL MAX1524 192 80 R0
SYMATTR InstName U1
SYMBOL res -32 0 R0
SYMATTR InstName R4
SYMATTR Value 10
TEXT 112 280 Left 2 !.tran 5m startup
