Version 4
SHEET 1 992 680
WIRE -48 -32 -64 -32
WIRE 48 -32 -48 -32
WIRE 176 -32 48 -32
WIRE 512 -32 464 -32
WIRE 624 -32 592 -32
WIRE 704 -32 624 -32
WIRE 752 -32 704 -32
WIRE 784 -32 752 -32
WIRE 48 -16 48 -32
WIRE 624 -16 624 -32
WIRE 784 -16 784 -32
WIRE -64 16 -64 -32
WIRE 624 64 624 48
WIRE 784 80 784 64
WIRE 48 96 48 64
WIRE 176 96 48 96
WIRE 48 112 48 96
WIRE -64 128 -64 96
WIRE 512 128 464 128
WIRE 704 128 704 -32
WIRE 704 128 592 128
WIRE 48 224 48 192
WIRE 176 224 48 224
WIRE 704 224 704 128
WIRE 704 224 464 224
WIRE 48 240 48 224
WIRE 320 384 320 368
FLAG -64 128 0
FLAG 320 384 0
FLAG 624 64 0
FLAG 784 80 0
FLAG -48 -32 vIN
FLAG 752 -32 vOUT
FLAG 48 240 0
SYMBOL voltage -64 0 R0
WINDOW 123 0 0 Left 0
WINDOW 39 0 0 Left 0
SYMATTR InstName V1
SYMATTR Value 12
SYMBOL ind 496 -16 R270
WINDOW 0 32 56 VTop 2
WINDOW 3 5 56 VBottom 2
SYMATTR InstName L1
SYMATTR Value 220µ
SYMATTR SpiceLine Rser=3.7
SYMBOL cap 608 -16 R0
SYMATTR InstName C1
SYMATTR Value 10µ
SYMBOL res 768 -32 R0
SYMATTR InstName Rload
SYMATTR Value 100
SYMBOL res 32 -32 R0
SYMATTR InstName R1
SYMATTR Value 3.32Meg
SYMBOL res 32 96 R0
SYMATTR InstName R2
SYMATTR Value 475k
SYMBOL res 608 112 R90
WINDOW 0 0 56 VBottom 2
WINDOW 3 32 56 VTop 2
SYMATTR InstName R3
SYMATTR Value 100k
SYMBOL MAX17555B 320 144 R0
SYMATTR InstName U1
TEXT 472 400 Left 2 !.tran 1.6m startup
