Version 4
SHEET 1 1172 744
WIRE -320 -160 -336 -160
WIRE -256 -160 -320 -160
WIRE -16 -160 -256 -160
WIRE 48 -160 -16 -160
WIRE 176 -160 144 -160
WIRE 192 -160 176 -160
WIRE 304 -160 288 -160
WIRE 400 -160 384 -160
WIRE 432 -160 400 -160
WIRE 480 -160 432 -160
WIRE 544 -160 480 -160
WIRE 560 -160 544 -160
WIRE 480 -144 480 -160
WIRE 560 -128 560 -160
WIRE -336 -112 -336 -160
WIRE 160 -112 128 -112
WIRE 208 -112 160 -112
WIRE 160 -96 160 -112
WIRE 160 -96 96 -96
WIRE 96 -80 96 -96
WIRE 288 -64 288 -160
WIRE 288 -64 256 -64
WIRE 400 -64 400 -160
WIRE 400 -64 336 -64
WIRE 480 -64 480 -80
WIRE 560 -16 560 -48
WIRE -336 0 -336 -32
WIRE -16 16 -16 -160
WIRE 96 16 96 0
WIRE 176 16 176 -160
WIRE 256 16 256 -64
WIRE 336 16 336 -64
WIRE 432 32 432 -160
WIRE -256 48 -256 -160
WIRE -240 48 -256 48
WIRE -160 48 -176 48
WIRE -160 96 -160 48
WIRE -80 96 -160 96
WIRE -48 96 -80 96
WIRE -160 112 -160 96
WIRE -160 192 -160 176
WIRE -80 192 -80 96
WIRE -48 192 -80 192
WIRE 432 192 432 112
WIRE 432 192 384 192
WIRE -48 288 -144 288
WIRE -144 384 -144 368
WIRE -48 384 -144 384
WIRE 528 384 384 384
WIRE 528 400 528 384
WIRE -144 480 -144 464
WIRE -48 480 -144 480
WIRE 448 480 384 480
WIRE -144 496 -144 480
WIRE 448 496 448 480
WIRE -144 608 -144 576
WIRE 176 608 176 528
WIRE 176 608 -144 608
WIRE 448 608 448 576
WIRE 448 608 176 608
WIRE 528 608 528 480
WIRE 528 608 448 608
WIRE 176 640 176 608
FLAG -320 -160 IN
FLAG 544 -160 OUT
FLAG 480 -64 0
FLAG 176 640 0
FLAG -160 192 0
FLAG -336 0 0
FLAG 560 -16 0
SYMBOL MAX16141 160 288 R0
SYMATTR InstName U1
SYMBOL res 112 16 R180
WINDOW 0 -40 66 Left 2
WINDOW 3 -32 31 Left 2
SYMATTR InstName Rg
SYMATTR Value 1
SYMBOL res 400 -176 R90
WINDOW 0 -6 47 VBottom 2
WINDOW 3 36 54 VTop 2
SYMATTR InstName Rsense
SYMATTR Value 1m
SYMBOL cap 464 -144 R0
SYMATTR InstName C1
SYMATTR Value 1µ
SYMATTR SpiceLine Rser=10m
SYMBOL res 448 128 R180
WINDOW 0 -33 74 Left 2
WINDOW 3 -39 34 Left 2
SYMATTR InstName R4
SYMATTR Value 10k
SYMBOL res 464 592 R180
WINDOW 0 -33 74 Left 2
WINDOW 3 -39 34 Left 2
SYMATTR InstName R5
SYMATTR Value 10k
SYMBOL res 544 496 R180
WINDOW 0 -33 74 Left 2
WINDOW 3 -39 34 Left 2
SYMATTR InstName R6
SYMATTR Value 10k
SYMBOL res -160 272 R0
SYMATTR InstName R1
SYMATTR Value 86.6k
SYMBOL res -160 368 R0
SYMATTR InstName R2
SYMATTR Value 20k
SYMBOL res -160 480 R0
SYMATTR InstName R3
SYMATTR Value 1.35k
SYMBOL cap -176 112 R0
WINDOW 123 24 84 Left 2
SYMATTR InstName C2
SYMATTR Value 0.33µ
SYMBOL diode -240 64 R270
WINDOW 0 32 32 VTop 2
WINDOW 3 60 122 VBottom 2
SYMATTR InstName D1
SYMATTR Value CMDSH2-3
SYMBOL res 544 -144 R0
SYMATTR InstName Rload
SYMATTR Value 2
SYMBOL nmos 288 -112 M270
WINDOW 0 92 32 VRight 2
WINDOW 3 66 -18 VRight 2
SYMATTR InstName M2
SYMATTR Value AOB66613L
SYMBOL nmos 48 -112 R270
WINDOW 0 90 -16 VRight 2
WINDOW 3 66 -48 VRight 2
SYMATTR InstName M1
SYMATTR Value AOB66613L
SYMBOL voltage -336 -128 R0
WINDOW 123 0 0 Left 0
WINDOW 39 24 44 Left 2
SYMATTR InstName V3
SYMATTR Value 12
TEXT 48 728 Left 2 !.tran 500m startup
