Version 4
SHEET 1 936 832
WIRE 224 0 224 -16
WIRE 224 144 224 80
WIRE -96 224 -128 224
WIRE 96 224 -16 224
WIRE 128 224 96 224
WIRE 368 224 320 224
WIRE 448 224 368 224
WIRE 560 224 448 224
WIRE 448 256 448 224
WIRE 560 256 560 224
WIRE 80 288 32 288
WIRE 128 288 80 288
WIRE 32 336 32 288
WIRE 448 352 448 336
WIRE 560 352 560 320
WIRE 224 416 224 400
WIRE 32 464 32 416
FLAG -128 224 0
FLAG 32 464 0
FLAG 448 352 0
FLAG 224 416 0
FLAG 368 224 vB
FLAG 96 224 vA
FLAG 80 288 vIN
FLAG 224 -16 0
FLAG 560 352 0
SYMBOL voltage 0 224 M270
WINDOW 0 32 56 VTop 2
WINDOW 3 -32 56 VBottom 2
WINDOW 123 0 0 Left 0
WINDOW 39 0 0 Left 0
SYMATTR InstName V1
SYMATTR Value SINE(0 5.5 20)
SYMBOL res 432 240 R0
SYMATTR InstName R1
SYMATTR Value 100
SYMBOL voltage 32 320 R0
WINDOW 123 0 0 Left 0
WINDOW 39 0 0 Left 0
WINDOW 3 30 177 Left 2
SYMATTR Value PULSE(0 2.5 20n 20n 20n 150m 300m)
SYMATTR InstName V2
SYMBOL MAX14662 224 272 R0
SYMATTR InstName U1
SYMBOL voltage 224 96 M180
WINDOW 0 24 96 Left 2
WINDOW 3 24 16 Left 2
WINDOW 123 0 0 Left 0
WINDOW 39 0 0 Left 0
SYMATTR InstName V3
SYMATTR Value 3
SYMBOL cap 544 256 R0
SYMATTR InstName C1
SYMATTR Value 33p
TEXT 328 440 Left 2 !.tran 1
TEXT -296 -72 Left 2 ;Note:\nSwitch shown for a logic 0 input\nSPI and I2C not included\nOnly one channel modeled
