Version 4
SHEET 1 1800 680
WIRE -16 -352 -368 -352
WIRE 512 -352 272 -352
WIRE 624 -352 512 -352
WIRE 784 -352 672 -352
WIRE -368 -336 -368 -352
WIRE 512 -336 512 -352
WIRE 624 -336 624 -352
WIRE 784 -336 784 -352
WIRE 672 -320 672 -352
WIRE -368 -240 -368 -256
WIRE 512 -240 512 -272
WIRE 624 -240 624 -256
WIRE 784 -240 784 -256
WIRE -16 -192 -368 -192
WIRE 752 -192 272 -192
WIRE 864 -192 752 -192
WIRE 1008 -176 912 -176
WIRE -368 -160 -368 -192
WIRE 752 -160 752 -192
WIRE 864 -160 864 -192
WIRE 1008 -160 1008 -176
WIRE 912 -144 912 -176
WIRE -16 -128 -272 -128
WIRE 416 -128 272 -128
WIRE 528 -128 496 -128
WIRE -272 -96 -272 -128
WIRE 528 -80 528 -128
WIRE 608 -80 528 -80
WIRE -368 -64 -368 -80
WIRE 608 -64 608 -80
WIRE 752 -64 752 -96
WIRE 864 -64 864 -80
WIRE 1008 -64 1008 -80
WIRE 416 -32 272 -32
WIRE 528 -32 528 -80
WIRE 528 -32 496 -32
WIRE -272 0 -272 -16
WIRE -16 16 -176 16
WIRE 336 16 272 16
WIRE -176 32 -176 16
WIRE 336 32 336 16
WIRE 608 32 608 16
WIRE -16 128 -80 128
WIRE 336 128 336 112
WIRE 336 128 272 128
WIRE -80 144 -80 128
WIRE -176 160 -176 112
WIRE 336 160 336 128
WIRE -80 240 -80 224
FLAG -368 -240 0
FLAG 512 -240 0
FLAG 624 -352 OUT1
FLAG -368 -352 IN
FLAG 624 -240 0
FLAG 672 -272 0
FLAG 784 -240 0
FLAG -80 240 0
FLAG -176 160 0
FLAG 336 160 0
FLAG 608 32 0
FLAG 752 -64 0
FLAG 864 -192 OUT2
FLAG 864 -64 0
FLAG 912 -96 0
FLAG 1008 -64 0
FLAG -368 -64 0
FLAG -272 0 0
SYMBOL voltage -368 -352 R0
WINDOW 123 0 0 Left 2
WINDOW 39 0 0 Left 2
SYMATTR InstName V1
SYMATTR Value PWL(0 48)
SYMBOL cap 496 -336 R0
SYMATTR InstName C2
SYMATTR Value 22µ
SYMBOL sw 624 -240 R180
WINDOW 0 -23 102 Right 2
WINDOW 3 -26 2 Right 2
SYMATTR InstName S1
SYMATTR Value SHORT
SYMBOL voltage 784 -352 R0
WINDOW 123 0 0 Left 2
WINDOW 39 0 0 Left 2
SYMATTR InstName V3
SYMATTR Value PULSE(0 1 70m 1m 1m 100m)
SYMBOL res -96 240 M180
WINDOW 0 36 76 Left 2
WINDOW 3 36 40 Left 2
SYMATTR InstName R3
SYMATTR Value 28K
SYMBOL res 512 -144 R90
WINDOW 0 0 56 VBottom 2
WINDOW 3 32 56 VTop 2
SYMATTR InstName R7
SYMATTR Value 20K
SYMBOL res -192 128 M180
WINDOW 0 36 76 Left 2
WINDOW 3 36 40 Left 2
SYMATTR InstName R1
SYMATTR Value 3.01K
SYMBOL res 320 16 R0
SYMATTR InstName R2
SYMATTR Value 3.01K
SYMBOL res 512 -48 R90
WINDOW 0 0 56 VBottom 2
WINDOW 3 32 56 VTop 2
SYMATTR InstName R4
SYMATTR Value 20K
SYMBOL voltage 608 -80 R0
WINDOW 123 0 0 Left 2
WINDOW 39 0 0 Left 2
SYMATTR InstName V2
SYMATTR Value 5
SYMBOL cap 736 -160 R0
SYMATTR InstName C1
SYMATTR Value 22µ
SYMBOL sw 864 -64 R180
WINDOW 0 -23 102 Right 2
WINDOW 3 -26 2 Right 2
SYMATTR InstName S2
SYMATTR Value SHORT
SYMBOL voltage 1008 -176 R0
WINDOW 123 0 0 Left 2
WINDOW 39 0 0 Left 2
SYMATTR InstName V4
SYMATTR Value PULSE(0 1 70m 1m 1m 100m)
SYMBOL voltage -368 -176 R0
WINDOW 123 0 0 Left 2
WINDOW 39 0 0 Left 2
SYMATTR InstName V5
SYMATTR Value 2
SYMBOL voltage -272 -112 R0
WINDOW 123 0 0 Left 2
WINDOW 39 0 0 Left 2
SYMATTR InstName V6
SYMATTR Value 2
SYMBOL MAX15162A 128 -112 R0
SYMATTR InstName U1
TEXT 480 144 Left 2 !.model SHORT SW(Ron=31 Roff=100K Vt=.5 Vh=-.4)
TEXT 480 184 Left 2 !.tran 0.25 startup
