Version 4
SHEET 1 6404 1540
WIRE -48 -320 -192 -320
WIRE 128 -320 -48 -320
WIRE 304 -320 224 -320
WIRE 432 -320 304 -320
WIRE 448 -320 432 -320
WIRE 544 -320 528 -320
WIRE 576 -320 544 -320
WIRE 896 -320 672 -320
WIRE 960 -320 896 -320
WIRE 1104 -320 960 -320
WIRE 1232 -320 1104 -320
WIRE -192 -304 -192 -320
WIRE 960 -304 960 -320
WIRE 1232 -304 1232 -320
WIRE 1392 -288 1280 -288
WIRE 1392 -272 1392 -288
WIRE 304 -256 304 -320
WIRE 304 -256 224 -256
WIRE 352 -256 304 -256
WIRE 432 -256 432 -320
WIRE 656 -256 656 -272
WIRE 224 -224 224 -256
WIRE -192 -208 -192 -224
WIRE 352 -208 352 -256
WIRE 960 -208 960 -240
WIRE 1232 -208 1232 -224
WIRE 1392 -176 1392 -192
WIRE 656 -144 656 -176
WIRE 672 -144 656 -144
WIRE 768 -144 752 -144
WIRE 848 -144 832 -144
WIRE 352 -112 352 -144
WIRE 1104 -112 1104 -320
WIRE 1264 -96 1152 -96
WIRE 144 -80 144 -272
WIRE 224 -80 224 -160
WIRE 304 -80 304 -256
WIRE 432 -80 432 -176
WIRE 544 -80 544 -320
WIRE 656 -80 656 -144
WIRE 1264 -80 1264 -96
WIRE -48 -16 -48 -320
WIRE 16 -16 -48 -16
WIRE 896 -16 896 -320
WIRE 896 -16 784 -16
WIRE 1104 -16 1104 -32
WIRE 1264 16 1264 0
WIRE 16 48 -192 48
WIRE -192 64 -192 48
WIRE 816 80 784 80
WIRE 928 80 896 80
WIRE 928 128 928 80
WIRE 1024 128 928 128
WIRE 1024 144 1024 128
WIRE -192 160 -192 144
WIRE 816 176 784 176
WIRE 928 176 928 128
WIRE 928 176 896 176
WIRE 16 208 -48 208
WIRE -48 240 -48 208
WIRE 1024 240 1024 224
WIRE 848 256 784 256
WIRE 848 272 848 256
WIRE 592 368 592 336
WIRE 688 368 688 336
WIRE 848 368 848 352
WIRE 112 384 112 336
WIRE 112 384 0 384
WIRE 400 384 400 336
WIRE 0 416 0 384
WIRE 112 416 112 384
WIRE 592 464 592 432
WIRE 688 464 688 448
WIRE 112 512 112 496
WIRE 208 512 208 336
WIRE 208 512 112 512
WIRE 0 528 0 496
WIRE 304 528 304 336
WIRE 304 528 0 528
WIRE 0 544 0 528
WIRE 112 544 112 512
WIRE 0 640 0 624
WIRE 112 640 112 624
FLAG 848 -144 0
FLAG 848 368 0
FLAG -192 -208 0
FLAG -192 -320 IN
FLAG 112 640 0
FLAG 400 384 0
FLAG 592 464 0
FLAG 352 -112 0
FLAG 1024 240 0
FLAG 0 640 0
FLAG 688 464 0
FLAG -192 160 0
FLAG -48 240 0
FLAG 1232 -320 OUT
FLAG 960 -208 0
FLAG 1232 -208 0
FLAG 1280 -240 0
FLAG 1392 -176 0
FLAG 1104 -16 0
FLAG 1152 -48 0
FLAG 1264 16 0
SYMBOL nmos 576 -272 R270
WINDOW 0 83 47 VTop 2
WINDOW 3 67 117 VLeft 2
SYMATTR InstName Q2
SYMATTR Value IPD068N10N3
SYMBOL nmos 224 -272 M270
WINDOW 0 84 48 VTop 2
WINDOW 3 68 105 VLeft 2
SYMATTR InstName Q1
SYMATTR Value IPD068N10N3
SYMBOL res 912 64 R90
WINDOW 0 0 56 VBottom 2
WINDOW 3 32 56 VTop 2
SYMATTR InstName R6
SYMATTR Value 20k
SYMBOL res 912 160 R90
WINDOW 0 0 56 VBottom 2
WINDOW 3 32 56 VTop 2
SYMATTR InstName R7
SYMATTR Value 20k
SYMBOL res 768 -160 R90
WINDOW 0 0 56 VBottom 2
WINDOW 3 32 56 VTop 2
SYMATTR InstName R3
SYMATTR Value 47
SYMBOL cap 768 -160 M90
WINDOW 0 0 32 VBottom 2
WINDOW 3 32 32 VTop 2
SYMATTR InstName C3
SYMATTR Value 33n
SYMBOL cap 944 -304 R0
SYMATTR InstName C7
SYMATTR Value 1000µ
SYMBOL voltage -192 -320 R0
WINDOW 123 24 146 Left 2
WINDOW 39 24 125 Left 2
SYMATTR InstName V1
SYMATTR Value 24
SYMBOL res 544 -336 R90
WINDOW 0 0 56 VBottom 2
WINDOW 3 32 56 VTop 2
SYMATTR InstName R1
SYMATTR Value 0.001
SYMBOL voltage 1024 128 R0
WINDOW 123 0 0 Left 2
WINDOW 39 0 0 Left 2
SYMATTR InstName V2
SYMATTR Value 5
SYMBOL res 640 -272 R0
SYMATTR InstName R13
SYMATTR Value 10
SYMBOL res 832 256 R0
SYMATTR InstName R2
SYMATTR Value 221k
SYMBOL res 672 352 R0
SYMATTR InstName R9
SYMATTR Value 30k
SYMBOL res -16 400 R0
SYMATTR InstName R4
SYMATTR Value 499k
SYMBOL res -16 528 R0
SYMATTR InstName R5
SYMATTR Value 4.02k
SYMBOL res 96 400 R0
SYMATTR InstName R10
SYMATTR Value 2.1Meg
SYMBOL res 96 528 R0
SYMATTR InstName R11
SYMATTR Value 90.9k
SYMBOL cap 576 368 R0
SYMATTR InstName C4
SYMATTR Value 330p
SYMBOL cap 208 -224 R0
SYMATTR InstName C1
SYMATTR Value 0.1µ
SYMBOL cap 336 -208 R0
SYMATTR InstName C2
SYMATTR Value 0.1µ
SYMBOL res 416 -272 R0
SYMATTR InstName R8
SYMATTR Value 1k
SYMBOL voltage -192 48 R0
WINDOW 123 24 146 Left 2
WINDOW 39 24 125 Left 2
SYMATTR InstName V4
SYMATTR Value 5
SYMBOL MAX16170 400 128 R0
SYMATTR InstName U1
SYMBOL sw 1232 -208 R180
WINDOW 0 -23 102 Right 2
WINDOW 3 -26 2 Right 2
SYMATTR InstName S1
SYMATTR Value LOAD
SYMBOL voltage 1392 -288 R0
WINDOW 123 0 0 Left 2
WINDOW 39 0 0 Left 2
SYMATTR InstName V3
SYMATTR Value PWL(0 0 1u 0 70m 0 +1u 1 +30m 1 +1u 0 460m 0 +1u 1)
SYMBOL sw 1104 -16 R180
WINDOW 0 -23 102 Right 2
WINDOW 3 -26 2 Right 2
SYMATTR InstName S2
SYMATTR Value SHORT
SYMBOL voltage 1264 -96 R0
WINDOW 123 0 0 Left 2
WINDOW 39 0 0 Left 2
SYMATTR InstName V6
SYMATTR Value PWL(0 0 1u 0 90m 0 +1u 1 +500u 1 +1u 0)
TEXT 944 504 Left 2 !.tran 0 500m startup
TEXT 944 424 Left 2 !.model LOAD SW(Ron=2 Roff=16 Vt=.5 Vh=-.4)\n.model SHORT SW(Ron=650m Roff=1meg Vt=.5 Vh=-.4)
