Version 4
SHEET 1 992 680
WIRE -176 -32 -192 -32
WIRE 48 -32 -176 -32
WIRE 176 -32 48 -32
WIRE 512 -32 464 -32
WIRE 624 -32 592 -32
WIRE 704 -32 624 -32
WIRE 768 -32 704 -32
WIRE 864 -32 768 -32
WIRE 896 -32 864 -32
WIRE 48 -16 48 -32
WIRE 624 -16 624 -32
WIRE 768 -16 768 -32
WIRE 896 -16 896 -32
WIRE -192 16 -192 -32
WIRE 624 64 624 48
WIRE 896 80 896 64
WIRE 48 96 48 64
WIRE 48 96 -64 96
WIRE 176 96 48 96
WIRE -64 112 -64 96
WIRE 48 112 48 96
WIRE -192 128 -192 96
WIRE 512 128 464 128
WIRE 704 128 704 -32
WIRE 704 128 592 128
WIRE -64 224 -64 192
WIRE 48 224 48 192
WIRE 176 224 48 224
WIRE 768 224 768 64
WIRE 768 224 464 224
WIRE 768 256 768 224
WIRE 768 352 768 336
WIRE 320 384 320 368
FLAG -192 128 0
FLAG 320 384 0
FLAG 624 64 0
FLAG 896 80 0
FLAG 768 352 0
FLAG -176 -32 vIN
FLAG 864 -32 vOUT
FLAG -64 224 0
SYMBOL voltage -192 0 R0
WINDOW 123 0 0 Left 0
WINDOW 39 0 0 Left 0
SYMATTR InstName V1
SYMATTR Value 24
SYMBOL ind 496 -16 R270
WINDOW 0 32 56 VTop 2
WINDOW 3 5 56 VBottom 2
SYMATTR InstName L1
SYMATTR Value 270µ
SYMATTR SpiceLine Rser=1.7
SYMBOL cap 608 -16 R0
SYMATTR InstName C2
SYMATTR Value 10µ
SYMBOL res 752 -32 R0
SYMATTR InstName R5
SYMATTR Value 698k
SYMBOL res 752 240 R0
SYMATTR InstName R6
SYMATTR Value 49.9k
SYMBOL res 880 -32 R0
SYMATTR InstName Rload
SYMATTR Value 400
SYMBOL res 32 -32 R0
SYMATTR InstName R1
SYMATTR Value 3.32Meg
SYMBOL res 32 96 R0
SYMATTR InstName R3
SYMATTR Value 953k
SYMBOL MAX17555C 320 144 R0
SYMATTR InstName U1
SYMBOL res -80 96 R0
SYMATTR InstName R2
SYMATTR Value 287k
SYMBOL res 608 112 R90
WINDOW 0 0 56 VBottom 2
WINDOW 3 32 56 VTop 2
SYMATTR InstName R4
SYMATTR Value 100k
TEXT 480 392 Left 2 !.tran 2.4m startup
