Version 4
SHEET 1 3376 692
WIRE 2224 -272 1856 -272
WIRE 2368 -272 2288 -272
WIRE 2368 -256 2368 -272
WIRE 1456 -224 1392 -224
WIRE 1488 -224 1456 -224
WIRE 1552 -224 1488 -224
WIRE 2128 -224 1552 -224
WIRE 2208 -224 2128 -224
WIRE 1392 -208 1392 -224
WIRE 2128 -208 2128 -224
WIRE 1488 -192 1488 -224
WIRE 2368 -160 2368 -176
WIRE 2368 -160 2256 -160
WIRE 2208 -144 2208 -224
WIRE 2368 -144 2208 -144
WIRE 1552 -128 1552 -224
WIRE 2528 -128 2416 -128
WIRE 2656 -128 2592 -128
WIRE 2720 -128 2656 -128
WIRE 2768 -128 2720 -128
WIRE 2800 -128 2768 -128
WIRE 1392 -112 1392 -128
WIRE 1488 -112 1488 -128
WIRE 1856 -112 1856 -272
WIRE 2128 -112 2128 -128
WIRE 2128 -112 1856 -112
WIRE 2368 -112 2368 -144
WIRE 2416 -112 2416 -128
WIRE 2656 -112 2656 -128
WIRE 2800 -112 2800 -128
WIRE 2128 -96 2128 -112
WIRE 1856 -80 1856 -112
WIRE 1552 -16 1552 -48
WIRE 1696 -16 1552 -16
WIRE 2064 -16 2016 -16
WIRE 2128 -16 2128 -32
WIRE 2256 -16 2256 -160
WIRE 2256 -16 2128 -16
WIRE 1552 0 1552 -16
WIRE 2416 0 2416 -32
WIRE 2656 0 2656 -48
WIRE 2656 0 2416 0
WIRE 2256 16 2256 -16
WIRE 2656 32 2656 0
WIRE 2800 32 2800 -32
WIRE 2368 48 2368 -32
WIRE 2064 64 2064 48
WIRE 1552 96 1552 80
WIRE 2256 96 2016 96
WIRE 2256 128 2256 96
WIRE 2320 128 2256 128
WIRE 1488 160 1472 160
WIRE 1568 160 1552 160
WIRE 1664 160 1648 160
WIRE 2720 176 2720 -128
WIRE 1472 208 1472 160
WIRE 1472 208 1440 208
WIRE 1664 208 1664 160
WIRE 1696 208 1664 208
WIRE 2208 208 2016 208
WIRE 2256 208 2208 208
WIRE 2368 208 2368 144
WIRE 2368 208 2336 208
WIRE 2208 224 2208 208
WIRE 2368 224 2368 208
WIRE 1472 256 1472 208
WIRE 1536 256 1472 256
WIRE 1664 256 1664 208
WIRE 1664 256 1600 256
WIRE 2720 272 2720 256
WIRE 2720 272 2672 272
WIRE 2720 288 2720 272
WIRE 2208 304 2208 288
WIRE 1440 320 1440 208
WIRE 1696 320 1440 320
WIRE 2064 320 2016 320
WIRE 2176 320 2064 320
WIRE 2368 320 2368 304
WIRE 2064 336 2064 320
WIRE 2176 336 2176 320
WIRE 2720 384 2720 368
WIRE 1856 416 1856 384
WIRE 2064 432 2064 416
WIRE 2176 432 2176 416
WIRE 2176 512 2176 496
WIRE 1440 544 1440 320
WIRE 2672 544 2672 272
WIRE 2672 544 1440 544
FLAG 2064 432 0
FLAG 2720 384 0
FLAG 1856 416 0
FLAG 2800 32 0
FLAG 1392 -112 0
FLAG 2064 64 0
FLAG 2768 -128 OUT
FLAG 1456 -224 IN
FLAG 1552 96 0
FLAG 2368 320 0
FLAG 2656 32 0
FLAG 2256 16 0
FLAG 1488 -112 0
FLAG 2176 512 0
FLAG 2208 304 0
SYMBOL NMOS 2320 48 R0
SYMATTR InstName Q1
SYMATTR Value IRFH5020
SYMBOL RES 2048 320 R0
SYMATTR InstName R1
SYMATTR Value 10K
SYMBOL res 2704 272 R0
SYMATTR InstName R2
SYMATTR Value 8.2K
SYMBOL res 2704 160 R0
SYMATTR InstName R3
SYMATTR Value 25K
SYMBOL ind2 2352 -16 M180
WINDOW 0 -10 80 Right 2
WINDOW 3 -3 30 Right 2
SYMATTR InstName L1
SYMATTR Value 35µ
SYMATTR Type ind
SYMATTR SpiceLine Rpar=3K
SYMBOL schottky 2528 -112 R270
WINDOW 0 32 32 VTop 2
WINDOW 3 0 32 VBottom 2
SYMATTR InstName D1
SYMATTR Value MBRS360
SYMBOL res 1664 144 R90
WINDOW 0 0 56 VBottom 2
WINDOW 3 32 56 VTop 2
SYMATTR InstName R4
SYMATTR Value 75K
SYMBOL cap 1552 144 R90
WINDOW 0 0 32 VBottom 2
WINDOW 3 32 32 VTop 2
SYMATTR InstName C2
SYMATTR Value 3.9n
SYMBOL VOLTAGE 1392 -224 R0
WINDOW 123 0 0 Left 2
WINDOW 39 0 0 Left 2
SYMATTR InstName V1
SYMATTR Value 25
SYMBOL res 1536 -16 R0
SYMATTR InstName R5
SYMATTR Value 10K
SYMBOL res 1536 -144 R0
SYMATTR InstName R6
SYMATTR Value 105K
SYMBOL res 2352 208 R0
SYMATTR InstName R7
SYMATTR Value 0.6
SYMBOL res 2112 -224 R0
SYMATTR InstName R8
SYMATTR Value 1K
SYMBOL cap 2112 -96 R0
SYMATTR InstName C6
SYMATTR Value 1µ
SYMBOL diode 2288 -288 R90
WINDOW 0 0 32 VBottom 2
WINDOW 3 32 32 VTop 2
SYMATTR InstName D2
SYMATTR Value ES1D
SYMBOL ind2 2432 -128 M0
WINDOW 0 -5 31 Right 2
WINDOW 3 -8 86 Right 2
SYMATTR InstName L2
SYMATTR Value 1.6µ
SYMATTR Type ind
SYMATTR SpiceLine Rpar=1K
SYMBOL res 2784 -128 R0
SYMATTR InstName Rload
SYMATTR Value 3.333
SYMBOL polcap 2640 -112 R0
SYMATTR InstName C1
SYMATTR Value 68µ
SYMBOL ind2 2352 -272 R0
WINDOW 0 -5 31 Right 2
WINDOW 3 -8 86 Right 2
SYMATTR InstName L3
SYMATTR Value 35µ
SYMATTR Type ind
SYMATTR SpiceLine Rpar=1K
SYMBOL cap 1472 -192 R0
SYMATTR InstName C4
SYMATTR Value 1µ
SYMBOL cap 2048 -16 R0
SYMATTR InstName C3
SYMATTR Value 0.22µ
SYMBOL res 2160 320 R0
SYMATTR InstName R9
SYMATTR Value 750
SYMBOL cap 2160 432 R0
SYMATTR InstName C5
SYMATTR Value 0.1µ
SYMBOL cap 1600 240 R90
WINDOW 0 0 32 VBottom 2
WINDOW 3 32 32 VTop 2
SYMATTR InstName C7
SYMATTR Value 100p
SYMBOL res 2352 192 R90
WINDOW 0 0 56 VBottom 2
WINDOW 3 32 56 VTop 2
SYMATTR InstName R10
SYMATTR Value 1K
SYMBOL cap 2192 224 R0
SYMATTR InstName C8
SYMATTR Value 0.1n
SYMBOL MAX17500 1856 128 R0
SYMATTR InstName U1
TEXT 2032 576 Left 2 !.tran 30m startup
TEXT 2400 -296 Bottom 2 !K1 L1 L2 L3 1
