Version 4
SHEET 1 2104 680
WIRE 1216 -480 960 -480
WIRE 960 -448 960 -480
WIRE 960 -352 960 -368
WIRE 1216 -320 1216 -480
WIRE 1040 -288 592 -288
WIRE 1088 -288 1040 -288
WIRE 1392 -256 1344 -256
WIRE 592 -192 592 -288
WIRE 1392 -192 1392 -256
WIRE 1040 -160 1008 -160
WIRE 1088 -160 1040 -160
WIRE 592 -96 592 -112
WIRE 1392 -48 1392 -112
WIRE 1392 -48 1344 -48
WIRE 1088 -16 1008 -16
WIRE 1392 -16 1392 -48
WIRE 1008 0 1008 -16
WIRE 1008 80 1008 64
FLAG 960 -352 0
FLAG 1008 80 0
FLAG 1392 -16 0
FLAG 592 -96 0
FLAG 1040 -160 GATE
FLAG 1040 -288 DRN
SYMBOL MAX17606 1216 -160 R0
SYMATTR InstName U1
SYMBOL voltage 960 -464 R0
WINDOW 123 0 0 Left 0
WINDOW 39 0 0 Left 0
SYMATTR InstName V1
SYMATTR Value 12
SYMBOL cap 992 0 R0
SYMATTR InstName C8
SYMATTR Value 2.2µ
SYMBOL res 1376 -208 R0
SYMATTR InstName R11
SYMATTR Value 40.2k
SYMBOL voltage 592 -208 R0
SYMATTR InstName V2
SYMATTR Value pulse(-150m 40m 0.3m 2n 2n 1.67u 3.33u)
TEXT 1352 48 Left 2 !.tran 0.4m
