Version 4
SHEET 1 4024 1172
WIRE 608 -64 608 -96
WIRE 1360 -64 1360 -112
WIRE 32 32 -80 32
WIRE 208 32 32 32
WIRE 240 32 208 32
WIRE 608 32 608 16
WIRE 608 32 544 32
WIRE 1360 32 1360 16
WIRE 1440 32 1360 32
WIRE 1776 32 1744 32
WIRE 1888 32 1776 32
WIRE 1984 32 1888 32
WIRE 32 48 32 32
WIRE 1888 48 1888 32
WIRE -80 64 -80 32
WIRE 768 64 704 64
WIRE 832 64 768 64
WIRE 976 64 912 64
WIRE 1040 64 976 64
WIRE 1184 64 1120 64
WIRE 1296 64 1184 64
WIRE 1984 64 1984 32
WIRE 240 112 192 112
WIRE 704 112 704 64
WIRE 704 112 544 112
WIRE 768 112 768 64
WIRE 976 112 976 64
WIRE 1184 112 1184 64
WIRE 1296 112 1296 64
WIRE 1440 112 1296 112
WIRE 1792 112 1744 112
WIRE -80 160 -80 144
WIRE 32 160 32 112
WIRE 1984 160 1984 144
WIRE 1888 176 1888 112
WIRE 192 192 192 112
WIRE 192 192 32 192
WIRE 240 192 192 192
WIRE 704 192 544 192
WIRE 1440 192 1296 192
WIRE 1792 192 1792 112
WIRE 1792 192 1744 192
WIRE 1888 192 1792 192
WIRE 1888 224 1888 192
WIRE 704 240 704 192
WIRE 768 240 768 176
WIRE 768 240 704 240
WIRE 832 240 768 240
WIRE 976 240 976 176
WIRE 976 240 912 240
WIRE 1040 240 976 240
WIRE 1184 240 1184 176
WIRE 1184 240 1120 240
WIRE 1296 240 1296 192
WIRE 1296 240 1184 240
WIRE 208 272 128 272
WIRE 240 272 208 272
WIRE 592 272 544 272
WIRE 1440 272 1392 272
WIRE 1776 272 1744 272
WIRE 1792 272 1776 272
WIRE 592 304 592 272
WIRE 1392 320 1392 272
WIRE 128 336 128 272
WIRE 1792 336 1792 272
WIRE 1888 336 1888 304
WIRE 32 416 32 192
WIRE 976 432 960 432
WIRE 1088 432 1056 432
WIRE 128 448 128 416
WIRE 1792 448 1792 416
WIRE 32 528 32 496
FLAG 1792 448 COM
FLAG 1360 -112 COM
FLAG 608 -96 0
FLAG 32 160 0
FLAG 128 448 0
FLAG 32 528 0
FLAG 1888 336 COM
FLAG 1888 176 COM
FLAG 592 304 0
FLAG 1392 320 COM
FLAG 960 432 0
FLAG 1088 432 COM
FLAG 208 272 DIF
FLAG 208 32 ROR
FLAG 1776 32 ROF
FLAG 1776 272 DIR
FLAG -80 160 0
FLAG 1984 160 COM
SYMBOL MAX14783E 400 112 R0
SYMATTR InstName U1
SYMBOL voltage 608 32 M180
WINDOW 0 24 96 Left 2
WINDOW 3 24 16 Left 2
WINDOW 123 0 0 Left 0
WINDOW 39 0 0 Left 0
SYMATTR InstName V1
SYMATTR Value 3.3
SYMBOL cap 16 48 R0
WINDOW 123 24 84 Left 2
SYMATTR InstName C1
SYMATTR Value 15p
SYMBOL ind 928 48 R90
WINDOW 0 5 56 VBottom 2
WINDOW 3 32 56 VTop 2
SYMATTR InstName L1
SYMATTR Value 50n
SYMATTR SpiceLine Rser=10
SYMBOL cap 752 112 R0
SYMATTR InstName C2
SYMATTR Value 100p
SYMBOL cap 960 112 R0
SYMATTR InstName C3
SYMATTR Value 100p
SYMBOL cap 1168 112 R0
SYMATTR InstName C4
SYMATTR Value 100p
SYMBOL ind 1136 48 R90
WINDOW 0 5 56 VBottom 2
WINDOW 3 32 56 VTop 2
SYMATTR InstName L2
SYMATTR Value 50n
SYMATTR SpiceLine Rser=10
SYMBOL ind 928 256 M270
WINDOW 0 32 56 VTop 2
WINDOW 3 5 56 VBottom 2
SYMATTR InstName L3
SYMATTR Value 50n
SYMATTR SpiceLine Rser=10
SYMBOL ind 1136 256 M270
WINDOW 0 32 56 VTop 2
WINDOW 3 5 56 VBottom 2
SYMATTR InstName L4
SYMATTR Value 50n
SYMATTR SpiceLine Rser=10
SYMBOL voltage 128 320 R0
WINDOW 123 0 0 Left 2
WINDOW 39 0 0 Left 2
SYMATTR InstName V2
SYMATTR Value PULSE(0 3.3 .1u 4n 4n 42n 100n 10)
SYMBOL voltage 32 400 R0
WINDOW 123 0 0 Left 2
WINDOW 39 0 0 Left 2
SYMATTR InstName V3
SYMATTR Value PWL(0 3.3 1.2u 3.3 +10n 0)
SYMBOL MAX14783E 1584 112 M0
SYMATTR InstName U2
SYMBOL voltage 1360 32 M180
WINDOW 0 24 96 Left 2
WINDOW 3 24 16 Left 2
WINDOW 123 0 0 Left 0
WINDOW 39 0 0 Left 0
SYMATTR InstName V4
SYMATTR Value 3.3
SYMBOL voltage 1888 208 R0
WINDOW 123 0 0 Left 2
WINDOW 39 0 0 Left 2
SYMATTR InstName V8
SYMATTR Value PWL(0 0 1.2u 0 +10n 3.3)
SYMBOL voltage 1792 320 R0
WINDOW 123 0 0 Left 2
WINDOW 39 0 0 Left 2
SYMATTR InstName V9
SYMATTR Value PULSE(0 3.3 1.5u 4n 4n 42n 100n 10)
SYMBOL cap 1872 48 R0
WINDOW 123 24 84 Left 2
SYMATTR InstName C5
SYMATTR Value 15p
SYMBOL voltage 1072 432 R90
WINDOW 123 74 56 VTop 2
WINDOW 39 53 56 VTop 2
WINDOW 0 -32 56 VBottom 2
WINDOW 3 32 56 VTop 2
SYMATTR InstName V5
SYMATTR Value SINE(0 20 1Meg)
SYMBOL res -96 48 R0
SYMATTR InstName R1
SYMATTR Value 1Meg
SYMBOL res 1968 48 R0
SYMATTR InstName R2
SYMATTR Value 1Meg
TEXT 240 352 Left 2 !.tran 3u
TEXT 920 8 Left 2 ;Twisted pair
TEXT 992 -32 Bottom 2 ;Forward transmission from DIF to ROF  followed by\nreverse transmission from DIR to ROR
RECTANGLE Normal 1264 320 736 -16 2
