Version 4
SHEET 1 1800 680
WIRE -128 -352 -592 -352
WIRE -16 -352 -128 -352
WIRE 400 -352 272 -352
WIRE 544 -352 400 -352
WIRE -592 -336 -592 -352
WIRE 400 -336 400 -352
WIRE 544 -336 544 -352
WIRE -128 -304 -128 -352
WIRE -176 -288 -480 -288
WIRE -480 -256 -480 -288
WIRE -592 -240 -592 -256
WIRE 400 -240 400 -272
WIRE 544 -224 544 -256
WIRE -480 -160 -480 -176
WIRE -128 -160 -128 -224
WIRE -16 -160 -128 -160
WIRE -16 -112 -480 -112
WIRE 336 -112 272 -112
WIRE -480 -80 -480 -112
WIRE -16 -64 -128 -64
WIRE 336 -64 336 -112
WIRE 336 -64 272 -64
WIRE -128 -32 -128 -64
WIRE 336 -32 336 -64
WIRE -480 32 -480 0
WIRE -128 80 -128 48
FLAG -592 -240 0
FLAG 400 -240 0
FLAG 544 -352 IN
FLAG -176 -240 0
FLAG -480 -160 0
FLAG 336 -32 0
FLAG -480 32 0
FLAG 544 -224 0
FLAG -592 -352 BAT
FLAG -128 80 0
SYMBOL voltage -592 -352 R0
WINDOW 123 0 0 Left 2
WINDOW 39 0 0 Left 2
SYMATTR InstName V1
SYMATTR Value 3.6
SYMBOL cap 384 -336 R0
SYMATTR InstName C2
SYMATTR Value 0.1µ
SYMBOL sw -128 -208 M180
WINDOW 0 40 110 Right 2
WINDOW 3 89 16 Right 2
SYMATTR InstName S1
SYMATTR Value SHORT
SYMBOL voltage -480 -272 R0
WINDOW 123 0 0 Left 2
WINDOW 39 0 0 Left 2
SYMATTR InstName V2
SYMATTR Value PULSE(0 1 5m 1u 1u 3m)
SYMBOL MAX14525 128 -208 R0
SYMATTR InstName U1
SYMBOL voltage -480 -96 R0
WINDOW 123 0 0 Left 2
WINDOW 39 0 0 Left 2
SYMATTR InstName V3
SYMATTR Value PULSE(0 27 15m 1u 1u 5m)
SYMBOL res 528 -352 R0
SYMATTR InstName R1
SYMATTR Value 20
SYMBOL voltage -128 -48 R0
WINDOW 123 0 0 Left 2
WINDOW 39 0 0 Left 2
SYMATTR InstName V4
SYMATTR Value PWL(0 2 10m 2 +10u 0)
TEXT 288 24 Left 2 !.model SHORT SW(Ron=1k Roff=10g Vt=.5 Vh=-.4)
TEXT 288 64 Left 2 !.tran 25m startup
