Version 4
SHEET 1 880 680
WIRE -224 -512 -256 -512
WIRE -96 -512 -144 -512
WIRE -48 -512 -96 -512
WIRE 0 -512 -48 -512
WIRE 544 -512 528 -512
WIRE 656 -512 624 -512
WIRE -96 -480 -96 -512
WIRE 0 -432 -32 -432
WIRE 592 -432 528 -432
WIRE 688 -432 672 -432
WIRE -240 -352 -256 -352
WIRE 0 -352 -160 -352
WIRE 544 -352 528 -352
WIRE 656 -352 624 -352
WIRE -96 -272 -96 -416
WIRE 0 -272 -96 -272
WIRE 592 -272 528 -272
WIRE 688 -272 672 -272
WIRE 0 -192 -48 -192
WIRE 560 -192 528 -192
WIRE 672 -192 640 -192
WIRE -48 -112 -48 -128
WIRE 0 -112 -48 -112
WIRE 592 -112 528 -112
WIRE 704 -112 672 -112
WIRE 560 -32 528 -32
WIRE 672 -32 640 -32
WIRE 768 -32 752 -32
WIRE -176 48 -208 48
WIRE 0 48 -96 48
WIRE 592 48 528 48
WIRE -96 128 -128 128
WIRE 0 128 -32 128
WIRE 592 128 592 48
WIRE 592 128 528 128
WIRE 640 128 592 128
WIRE 784 128 720 128
WIRE -112 208 -128 208
WIRE 0 208 -32 208
WIRE 640 208 528 208
WIRE -192 288 -224 288
WIRE 0 288 -112 288
WIRE 576 288 528 288
WIRE 640 288 640 208
WIRE 640 288 576 288
WIRE -96 368 -112 368
WIRE 0 368 -16 368
WIRE 576 368 528 368
WIRE 640 368 576 368
WIRE -192 448 -224 448
WIRE 0 448 -112 448
WIRE 640 448 640 368
WIRE 640 448 528 448
FLAG -256 -512 0
FLAG -32 -432 0
FLAG -256 -352 0
FLAG -208 48 0
FLAG -128 128 0
FLAG -128 208 0
FLAG -224 288 0
FLAG -112 368 0
FLAG -224 448 0
FLAG 656 -512 0
FLAG 688 -432 0
FLAG 656 -352 0
FLAG 688 -272 0
FLAG 672 -192 0
FLAG 704 -112 0
FLAG 768 -32 0
FLAG 784 128 0
FLAG -48 -512 VM
FLAG 576 288 OUTA
FLAG 576 368 OUTB
SYMBOL MAX22205 256 80 R0
WINDOW 3 3 89 Center 2
WINDOW 0 2 -23 Center 2
SYMATTR InstName U1
SYMBOL voltage -128 -512 R90
WINDOW 0 -32 56 VBottom 2
WINDOW 3 32 56 VTop 2
WINDOW 123 0 0 Left 0
WINDOW 39 0 0 Left 0
SYMATTR InstName V1
SYMATTR Value 12
SYMBOL res -144 -368 R90
WINDOW 0 0 56 VBottom 2
WINDOW 3 32 56 VTop 2
SYMATTR InstName R1
SYMATTR Value 120k
SYMBOL cap -80 -416 R180
WINDOW 0 24 56 Left 2
WINDOW 3 24 8 Left 2
SYMATTR InstName C1
SYMATTR Value 1µ
SYMBOL cap -32 -128 R180
WINDOW 0 24 56 Left 2
WINDOW 3 24 8 Left 2
SYMATTR InstName C2
SYMATTR Value 100n
SYMBOL voltage -80 48 R90
WINDOW 0 -32 56 VBottom 2
WINDOW 3 32 56 VTop 2
WINDOW 123 0 0 Left 0
WINDOW 39 0 0 Left 0
SYMATTR InstName V2
SYMATTR Value 5
SYMBOL res -16 192 R90
WINDOW 0 0 56 VBottom 2
WINDOW 3 32 56 VTop 2
SYMATTR InstName R4
SYMATTR Value 12k
SYMBOL voltage -96 288 R90
WINDOW 0 -32 56 VBottom 2
WINDOW 3 32 56 VTop 2
WINDOW 123 0 0 Left 0
WINDOW 39 0 0 Left 0
SYMATTR InstName V3
SYMATTR Value 5
SYMBOL voltage 0 368 R90
WINDOW 0 -32 56 VBottom 2
WINDOW 3 32 56 VTop 2
WINDOW 123 0 0 Left 0
WINDOW 39 0 0 Left 0
SYMATTR InstName V4
SYMATTR Value 0
SYMBOL voltage -96 448 R90
WINDOW 0 -32 56 VBottom 2
WINDOW 3 32 56 VTop 2
WINDOW 123 0 0 Left 0
WINDOW 39 0 0 Left 0
SYMATTR InstName V5
SYMATTR Value 5
SYMBOL voltage 528 -512 M90
WINDOW 0 -32 56 VBottom 2
WINDOW 3 32 56 VTop 2
WINDOW 123 0 0 Left 0
WINDOW 39 0 0 Left 0
SYMATTR InstName V6
SYMATTR Value 0
SYMBOL voltage 576 -432 M90
WINDOW 0 -32 56 VBottom 2
WINDOW 3 32 56 VTop 2
WINDOW 123 0 0 Left 0
WINDOW 39 0 0 Left 0
SYMATTR InstName V7
SYMATTR Value 0
SYMBOL voltage 528 -352 M90
WINDOW 0 -32 56 VBottom 2
WINDOW 3 32 56 VTop 2
WINDOW 123 0 0 Left 0
WINDOW 39 0 0 Left 0
SYMATTR InstName V8
SYMATTR Value 0
SYMBOL voltage 576 -272 M90
WINDOW 0 -32 56 VBottom 2
WINDOW 3 32 56 VTop 2
WINDOW 123 0 0 Left 0
WINDOW 39 0 0 Left 0
SYMATTR InstName V9
SYMATTR Value 0
SYMBOL voltage 544 -192 M90
WINDOW 0 -32 56 VBottom 2
WINDOW 3 32 56 VTop 2
WINDOW 123 0 0 Left 0
WINDOW 39 0 0 Left 0
SYMATTR InstName V10
SYMATTR Value 5
SYMBOL voltage 576 -112 M90
WINDOW 0 -32 56 VBottom 2
WINDOW 3 32 56 VTop 2
WINDOW 123 0 0 Left 0
WINDOW 39 0 0 Left 0
SYMATTR InstName V11
SYMATTR Value 5
SYMBOL res 656 -48 R90
WINDOW 0 0 56 VBottom 2
WINDOW 3 32 56 VTop 2
SYMATTR InstName R5
SYMATTR Value 120k
SYMBOL voltage 656 -32 M90
WINDOW 0 -32 56 VBottom 2
WINDOW 3 32 56 VTop 2
WINDOW 123 0 0 Left 0
WINDOW 39 0 0 Left 0
SYMATTR InstName V12
SYMATTR Value 5
SYMBOL res 736 112 R90
WINDOW 0 0 56 VBottom 2
WINDOW 3 32 56 VTop 2
SYMATTR InstName R7
SYMATTR Value 1.5k
SYMBOL ind 624 272 R0
SYMATTR InstName L1
SYMATTR Value 1m
SYMBOL cap -32 112 R90
WINDOW 0 0 32 VBottom 2
WINDOW 3 32 32 VTop 2
SYMATTR InstName C3
SYMATTR Value 2.2µ
TEXT 640 520 Left 2 !.tran 5m startup
