Version 4
SHEET 1 936 832
WIRE 224 96 224 64
WIRE -272 144 -272 128
WIRE -80 160 -112 160
WIRE 96 160 0 160
WIRE 128 160 96 160
WIRE 368 192 320 192
WIRE 448 192 368 192
WIRE 544 192 448 192
WIRE 96 224 48 224
WIRE 128 224 96 224
WIRE 448 224 448 192
WIRE -272 240 -272 224
WIRE 544 240 544 192
WIRE 96 288 32 288
WIRE 128 288 96 288
WIRE 448 320 448 304
WIRE 544 320 544 304
WIRE 32 336 32 288
WIRE 224 416 224 400
WIRE 32 464 32 416
FLAG -272 240 0
FLAG -272 128 +V
FLAG -112 160 0
FLAG 32 464 0
FLAG 448 320 0
FLAG 544 320 0
FLAG 224 64 +V
FLAG 224 416 0
FLAG 96 160 vNC
FLAG 368 192 vCOM
FLAG 48 224 0
FLAG 96 224 vNO
FLAG 96 288 vCB
SYMBOL voltage -272 128 R0
WINDOW 123 0 0 Left 0
WINDOW 39 0 0 Left 0
SYMATTR InstName V1
SYMATTR Value 5
SYMBOL voltage 16 160 M270
WINDOW 0 32 56 VTop 2
WINDOW 3 -32 56 VBottom 2
WINDOW 123 0 0 Left 0
WINDOW 39 0 0 Left 0
SYMATTR InstName V3
SYMATTR Value SINE(0 5 100)
SYMBOL res 432 208 R0
SYMATTR InstName R1
SYMATTR Value 300
SYMBOL cap 528 240 R0
SYMATTR InstName C1
SYMATTR Value 15p
SYMBOL voltage 32 320 R0
WINDOW 123 0 0 Left 0
WINDOW 39 0 0 Left 0
WINDOW 3 30 177 Left 2
SYMATTR Value PULSE(0 1.8 20n 20n 20n 150m 300m)
SYMATTR InstName V6
SYMBOL MAX20337 224 240 R0
SYMATTR InstName U1
TEXT -280 504 Left 2 !.tran 1
TEXT -296 -80 Left 2 ;Note:\nSwitch shown for a logic 0 input\nCharge Injection not included
