Version 4
SHEET 1 2212 708
WIRE -48 -112 -96 -112
WIRE 16 -112 -48 -112
WIRE 480 -112 432 -112
WIRE 512 -112 480 -112
WIRE 512 -80 512 -112
WIRE -96 -48 -96 -112
WIRE 512 48 512 0
WIRE -96 64 -96 32
WIRE 16 64 16 -112
WIRE 80 64 16 64
WIRE 432 64 432 -112
WIRE 432 64 384 64
WIRE 16 144 -464 144
WIRE 80 144 16 144
WIRE 448 144 384 144
WIRE 496 144 448 144
WIRE 624 144 576 144
WIRE -464 176 -464 144
WIRE 16 224 -304 224
WIRE 80 224 16 224
WIRE 448 224 384 224
WIRE -304 272 -304 224
WIRE -464 288 -464 256
WIRE 80 304 16 304
WIRE 464 304 384 304
WIRE 624 304 624 144
WIRE 624 304 464 304
WIRE -304 384 -304 352
WIRE 16 384 16 304
FLAG 16 384 0
FLAG -304 384 0
FLAG -464 288 0
FLAG 16 144 IN+
FLAG 16 224 IN-
FLAG 448 144 OUT
FLAG -48 -112 VDD1
FLAG 480 -112 VDD2
FLAG 464 304 CLAMP
FLAG -96 64 0
FLAG 512 48 0
FLAG 448 224 0
SYMBOL MAX22701D 224 144 R0
SYMATTR InstName U1
SYMBOL voltage -96 -64 R0
SYMATTR InstName V1
SYMATTR Value 5
SYMBOL voltage -464 160 R0
WINDOW 3 74 5 Left 2
SYMATTR Value PULSE(0 5 0 2n 2n 6u 12u)
SYMATTR InstName V2
SYMBOL voltage -304 256 R0
WINDOW 3 22 -12 Left 2
SYMATTR Value PULSE(0 5 0 2n 2n 3u 5u)
SYMATTR InstName V3
SYMBOL res 592 128 R90
WINDOW 0 0 56 VBottom 2
WINDOW 3 32 56 VTop 2
SYMATTR InstName R1
SYMATTR Value 10
SYMBOL voltage 512 -96 R0
SYMATTR InstName V5
SYMATTR Value 20
TEXT 408 424 Left 2 !.tran 50u
