Version 4
SHEET 1 2212 708
WIRE -48 -112 -128 -112
WIRE 16 -112 -48 -112
WIRE 480 -112 432 -112
WIRE 560 -112 480 -112
WIRE 560 -80 560 -112
WIRE -128 -48 -128 -112
WIRE 560 48 560 0
WIRE -128 64 -128 32
WIRE 16 64 16 -112
WIRE 80 64 16 64
WIRE 432 64 432 -112
WIRE 432 64 384 64
WIRE 16 144 -416 144
WIRE 80 144 16 144
WIRE 448 144 384 144
WIRE 512 144 448 144
WIRE 688 144 592 144
WIRE -416 176 -416 144
WIRE 16 224 -256 224
WIRE 80 224 16 224
WIRE 448 224 384 224
WIRE -256 272 -256 224
WIRE -416 288 -416 256
WIRE 80 304 16 304
WIRE 464 304 384 304
WIRE 688 304 688 144
WIRE 688 304 464 304
WIRE -256 384 -256 352
FLAG 16 304 0
FLAG -256 384 0
FLAG -416 288 0
FLAG 16 144 IN
FLAG 16 224 _EN
FLAG 448 144 OUT
FLAG -48 -112 VDD1
FLAG 480 -112 VDD2
FLAG 464 304 CLAMP
FLAG 448 224 0
FLAG -128 64 0
FLAG 560 48 0
SYMBOL MAX22701E 224 144 R0
SYMATTR InstName U1
SYMBOL voltage -128 -64 R0
SYMATTR InstName V1
SYMATTR Value 5
SYMBOL voltage -416 160 R0
WINDOW 3 30 2 Left 2
WINDOW 0 29 97 Left 2
SYMATTR Value PULSE(0 5 0 2n 2n 6u 12u)
SYMATTR InstName V2
SYMBOL voltage -256 256 R0
WINDOW 3 25 -12 Left 2
WINDOW 0 25 96 Left 2
SYMATTR Value PULSE(0 5 0 2n 2n 3u 5u)
SYMATTR InstName V3
SYMBOL res 608 128 R90
WINDOW 0 0 56 VBottom 2
WINDOW 3 32 56 VTop 2
SYMATTR InstName R1
SYMATTR Value 10
SYMBOL voltage 560 -96 R0
SYMATTR InstName V5
SYMATTR Value 20
TEXT 280 408 Left 2 !.tran 50u
