Version 4
SHEET 1 2580 884
WIRE -304 -688 -368 -688
WIRE -224 -688 -304 -688
WIRE -176 -688 -224 -688
WIRE -16 -688 -80 -688
WIRE 208 -688 -16 -688
WIRE 512 -688 288 -688
WIRE 592 -688 512 -688
WIRE 720 -688 656 -688
WIRE 784 -688 720 -688
WIRE 864 -688 784 -688
WIRE 944 -688 864 -688
WIRE 1072 -688 944 -688
WIRE 1232 -688 1072 -688
WIRE 1392 -688 1232 -688
WIRE 1440 -688 1392 -688
WIRE 1552 -688 1440 -688
WIRE -16 -672 -16 -688
WIRE -368 -656 -368 -688
WIRE 720 -656 720 -688
WIRE 784 -656 784 -688
WIRE 864 -656 864 -688
WIRE -16 -592 -16 -608
WIRE -96 -560 -96 -640
WIRE 64 -560 -96 -560
WIRE 512 -560 512 -688
WIRE 512 -560 480 -560
WIRE -368 -544 -368 -576
WIRE 720 -544 720 -592
WIRE 784 -544 784 -592
WIRE 864 -544 864 -592
WIRE 1072 -544 1072 -688
WIRE 1232 -544 1232 -688
WIRE 1392 -544 1392 -688
WIRE 1552 -544 1552 -688
WIRE -224 -464 -224 -688
WIRE 64 -464 -224 -464
WIRE 1072 -432 1072 -480
WIRE 1232 -432 1232 -480
WIRE 1392 -432 1392 -480
WIRE 1552 -432 1552 -480
WIRE 944 -416 944 -688
WIRE -224 -368 -224 -464
WIRE 64 -368 -224 -368
WIRE 1072 -320 1072 -368
WIRE 1232 -320 1232 -368
WIRE 1392 -320 1392 -368
WIRE 1552 -320 1552 -368
WIRE 64 -272 -80 -272
WIRE 944 -272 944 -336
WIRE 944 -272 480 -272
WIRE 944 -224 944 -272
WIRE 1072 -208 1072 -256
WIRE 1232 -208 1232 -256
WIRE 1392 -208 1392 -256
WIRE 1552 -208 1552 -256
WIRE -160 -176 -192 -176
WIRE -80 -176 -80 -192
WIRE -80 -176 -96 -176
WIRE 48 -176 -80 -176
WIRE 64 -176 48 -176
WIRE 944 -112 944 -144
WIRE 1072 -96 1072 -144
WIRE 1232 -96 1232 -144
WIRE 1392 -96 1392 -144
WIRE 1552 -96 1552 -144
WIRE -80 -80 -80 -176
WIRE 528 16 480 16
WIRE 608 16 528 16
WIRE 1072 16 1072 -32
WIRE 1232 16 1232 -32
WIRE 1392 16 1392 -32
WIRE 1552 16 1552 -32
WIRE 608 32 608 16
WIRE 528 48 528 16
WIRE -80 112 -80 0
WIRE 64 112 -80 112
WIRE -80 128 -80 112
WIRE 528 144 528 112
WIRE 608 144 608 112
WIRE 48 208 48 -176
WIRE 64 208 48 208
WIRE 1072 208 1072 80
WIRE 1072 208 480 208
WIRE -80 224 -80 208
WIRE 64 304 -304 304
WIRE 1232 304 1232 80
WIRE 1232 304 480 304
WIRE -304 320 -304 304
WIRE 64 400 -208 400
WIRE 1392 400 1392 80
WIRE 1392 400 480 400
WIRE -304 432 -304 400
WIRE -208 432 -208 400
WIRE -16 496 -128 496
WIRE 64 496 -16 496
WIRE 1552 496 1552 80
WIRE 1552 496 480 496
WIRE -128 512 -128 496
WIRE -16 528 -16 496
WIRE -208 544 -208 512
WIRE 496 592 480 592
WIRE 608 592 576 592
WIRE -128 608 -128 592
WIRE -16 624 -16 592
WIRE -128 688 -128 672
WIRE 176 688 176 656
WIRE 272 688 272 656
WIRE 368 688 368 656
FLAG 176 688 0
FLAG 272 688 0
FLAG 368 688 0
FLAG -368 -544 0
FLAG 720 -544 0
FLAG 784 -544 0
FLAG 864 -544 0
FLAG 944 -112 0
FLAG -304 -688 IN
FLAG 1440 -688 OUT
FLAG -128 688 0
FLAG -16 624 0
FLAG 608 144 0
FLAG 528 144 0
FLAG -192 -176 0
FLAG 608 592 0
FLAG -304 432 0
FLAG -80 224 0
FLAG -16 -592 0
FLAG -208 544 0
SYMBOL voltage -368 -672 R0
SYMATTR InstName V1
SYMATTR Value 6
SYMBOL ind 192 -672 R270
WINDOW 0 32 56 VTop 2
WINDOW 3 5 56 VBottom 2
SYMATTR InstName L1
SYMATTR Value 10µ
SYMATTR SpiceLine Rser=19.5m
SYMBOL schottky 592 -672 R270
WINDOW 0 32 32 VTop 2
WINDOW 3 0 32 VBottom 2
SYMATTR InstName D1
SYMATTR Value PMEG3010BEA
SYMATTR Description Diode
SYMATTR Type diode
SYMBOL cap 768 -656 R0
WINDOW 123 26 76 Left 2
SYMATTR Value2 m=2
SYMATTR InstName C2
SYMATTR Value 4.7µ
SYMBOL cap 848 -656 R0
SYMATTR InstName C3
SYMATTR Value 1µ
SYMBOL res 928 -432 R0
SYMATTR InstName R4
SYMATTR Value 301K
SYMBOL res 928 -240 R0
SYMATTR InstName R5
SYMATTR Value 10K
SYMBOL res 592 16 R0
SYMATTR InstName R6
SYMATTR Value 64.9K
SYMBOL res -144 496 R0
SYMATTR InstName R7
SYMATTR Value 8.06K
SYMBOL cap -144 608 R0
SYMATTR InstName C4
SYMATTR Value 68n
SYMBOL cap -32 528 R0
SYMATTR InstName C5
SYMATTR Value 2.2n
SYMBOL cap 512 112 M180
WINDOW 0 24 56 Left 2
WINDOW 3 24 8 Left 2
SYMATTR InstName C6
SYMATTR Value 100p
SYMBOL cap -96 -192 R90
WINDOW 0 0 32 VBottom 2
WINDOW 3 32 32 VTop 2
SYMATTR InstName C7
SYMATTR Value 1µ
SYMBOL res 480 576 M90
WINDOW 0 0 56 VBottom 2
WINDOW 3 32 56 VTop 2
SYMATTR InstName R9
SYMATTR Value 12.4K
SYMBOL LED 1056 -544 R0
SYMATTR InstName D2
SYMATTR Value AOT-2015
SYMATTR Description Diode
SYMATTR Type diode
SYMBOL cap 704 -656 R0
SYMATTR InstName C1
SYMATTR Value 47µ
SYMBOL voltage -304 304 R0
WINDOW 3 -383 184 Left 2
SYMATTR Value PULSE(0 3.3 0 10n 10n 0.3m 0.5m)
SYMATTR InstName V2
SYMBOL res -96 -176 M180
WINDOW 0 36 76 Left 2
WINDOW 3 37 50 Left 2
SYMATTR InstName R11
SYMATTR Value 100K
SYMBOL res -96 -96 R0
SYMATTR InstName R12
SYMATTR Value 100K
SYMBOL res -96 112 R0
SYMATTR InstName R13
SYMATTR Value 47.5K
SYMBOL nmos -176 -640 R270
WINDOW 0 62 -1 VRight 2
WINDOW 3 66 55 VRight 2
SYMATTR InstName M1
SYMATTR Value AON6590A
SYMBOL cap -32 -672 R0
SYMATTR InstName C8
SYMATTR Value 10µ
SYMBOL voltage -208 416 R0
WINDOW 3 -348 199 Left 2
SYMATTR Value PULSE(0 3.3 0 10n 10n 0.5m 1m)
SYMATTR InstName V3
SYMBOL LED 1056 -432 R0
SYMATTR InstName D3
SYMATTR Value AOT-2015
SYMATTR Description Diode
SYMATTR Type diode
SYMBOL LED 1056 -320 R0
SYMATTR InstName D4
SYMATTR Value AOT-2015
SYMATTR Description Diode
SYMATTR Type diode
SYMBOL LED 1216 -544 R0
SYMATTR InstName D5
SYMATTR Value AOT-2015
SYMATTR Description Diode
SYMATTR Type diode
SYMBOL LED 1216 -432 R0
SYMATTR InstName D6
SYMATTR Value AOT-2015
SYMATTR Description Diode
SYMATTR Type diode
SYMBOL LED 1216 -320 R0
SYMATTR InstName D7
SYMATTR Value AOT-2015
SYMATTR Description Diode
SYMATTR Type diode
SYMBOL LED 1376 -544 R0
SYMATTR InstName D8
SYMATTR Value AOT-2015
SYMATTR Description Diode
SYMATTR Type diode
SYMBOL LED 1376 -432 R0
SYMATTR InstName D9
SYMATTR Value AOT-2015
SYMATTR Description Diode
SYMATTR Type diode
SYMBOL LED 1376 -320 R0
SYMATTR InstName D10
SYMATTR Value AOT-2015
SYMATTR Description Diode
SYMATTR Type diode
SYMBOL LED 1536 -544 R0
SYMATTR InstName D11
SYMATTR Value AOT-2015
SYMATTR Description Diode
SYMATTR Type diode
SYMBOL LED 1536 -432 R0
SYMATTR InstName D12
SYMATTR Value AOT-2015
SYMATTR Description Diode
SYMATTR Type diode
SYMBOL LED 1536 -320 R0
SYMATTR InstName D13
SYMATTR Value AOT-2015
SYMATTR Description Diode
SYMATTR Type diode
SYMBOL LED 1056 -208 R0
SYMATTR InstName D14
SYMATTR Value AOT-2015
SYMATTR Description Diode
SYMATTR Type diode
SYMBOL LED 1056 -96 R0
SYMATTR InstName D15
SYMATTR Value AOT-2015
SYMATTR Description Diode
SYMATTR Type diode
SYMBOL LED 1056 16 R0
SYMATTR InstName D16
SYMATTR Value AOT-2015
SYMATTR Description Diode
SYMATTR Type diode
SYMBOL LED 1216 -208 R0
SYMATTR InstName D17
SYMATTR Value AOT-2015
SYMATTR Description Diode
SYMATTR Type diode
SYMBOL LED 1216 -96 R0
SYMATTR InstName D18
SYMATTR Value AOT-2015
SYMATTR Description Diode
SYMATTR Type diode
SYMBOL LED 1216 16 R0
SYMATTR InstName D19
SYMATTR Value AOT-2015
SYMATTR Description Diode
SYMATTR Type diode
SYMBOL LED 1376 -208 R0
SYMATTR InstName D20
SYMATTR Value AOT-2015
SYMATTR Description Diode
SYMATTR Type diode
SYMBOL LED 1376 -96 R0
SYMATTR InstName D21
SYMATTR Value AOT-2015
SYMATTR Description Diode
SYMATTR Type diode
SYMBOL LED 1376 16 R0
SYMATTR InstName D22
SYMATTR Value AOT-2015
SYMATTR Description Diode
SYMATTR Type diode
SYMBOL LED 1536 -208 R0
SYMATTR InstName D23
SYMATTR Value AOT-2015
SYMATTR Description Diode
SYMATTR Type diode
SYMBOL LED 1536 -96 R0
SYMATTR InstName D24
SYMATTR Value AOT-2015
SYMATTR Description Diode
SYMATTR Type diode
SYMBOL LED 1536 16 R0
SYMATTR InstName D25
SYMATTR Value AOT-2015
SYMATTR Description Diode
SYMATTR Type diode
SYMBOL MAX25510 272 16 R0
SYMATTR InstName U1
TEXT 184 792 Left 2 !.tran 50m startup
TEXT 704 560 Left 2 ;Variable definition\n \nSIM_SPEED_MULT multiplier to speed up the start-up routine.\n        Reccomended value ranges from 1 to 10 though can be increased indefinitely,\n        However model performance is not guaranteed.\nENABLED_CH= write1 to 4\n        1 to enable channel 1\n        2 to enable both channels 1 and 2\n        3 to enable channels 1, 2 and 3\n        4 to enable all channels\n        Note: When disabling unused strings, it is necessary to start by disabling the \n        highest numbered current sinks first.
