Version 4
SHEET 1 2212 708
WIRE 16 64 -592 64
WIRE 64 64 16 64
WIRE 448 64 384 64
WIRE 640 64 448 64
WIRE -592 112 -592 64
WIRE 640 128 640 64
WIRE 16 144 -464 144
WIRE 64 144 16 144
WIRE 448 144 384 144
WIRE 512 144 448 144
WIRE 512 160 512 144
WIRE -464 176 -464 144
WIRE 16 224 -304 224
WIRE 64 224 16 224
WIRE 512 224 512 208
WIRE 512 224 384 224
WIRE -592 272 -592 192
WIRE -304 272 -304 224
WIRE 640 272 640 208
WIRE -464 288 -464 256
WIRE 64 304 16 304
WIRE 512 304 512 224
WIRE 512 304 384 304
WIRE -304 384 -304 352
WIRE 16 384 16 304
WIRE 512 384 512 304
FLAG 16 384 0
FLAG -304 384 0
FLAG -464 288 0
FLAG 16 144 IN+
FLAG 16 224 IN-
FLAG 448 144 OUT
FLAG 16 64 VDDA
FLAG 448 64 VDDB
FLAG 512 384 0
FLAG -592 272 0
FLAG 640 272 0
SYMBOL MAX22700D 224 144 R0
SYMATTR InstName U1
SYMBOL voltage -592 96 R0
WINDOW 0 21 107 Left 2
WINDOW 3 22 -9 Left 2
SYMATTR InstName V1
SYMATTR Value 5
SYMBOL voltage -464 160 R0
WINDOW 3 32 1 Left 2
WINDOW 0 28 101 Left 2
SYMATTR Value PULSE(0 5 0 2n 2n 6u 12u)
SYMATTR InstName V2
SYMBOL voltage -304 256 R0
WINDOW 3 22 -12 Left 2
WINDOW 0 25 96 Left 2
SYMATTR Value PULSE(0 5 0 2n 2n 3u 5u)
SYMATTR InstName V3
SYMBOL cap 496 160 R0
SYMATTR InstName C1
SYMATTR Value 200p
SYMBOL voltage 640 112 R0
WINDOW 123 0 0 Left 0
WINDOW 39 0 0 Left 0
SYMATTR InstName V4
SYMATTR Value 20
TEXT 280 408 Left 2 !.tran 50u
