Version 4
SHEET 1 2580 884
WIRE -272 -672 -336 -672
WIRE -192 -672 -272 -672
WIRE -144 -672 -192 -672
WIRE 16 -672 -48 -672
WIRE 208 -672 16 -672
WIRE 512 -672 288 -672
WIRE 592 -672 512 -672
WIRE 720 -672 656 -672
WIRE 784 -672 720 -672
WIRE 864 -672 784 -672
WIRE 944 -672 864 -672
WIRE 1072 -672 944 -672
WIRE 1232 -672 1072 -672
WIRE 1392 -672 1232 -672
WIRE 1440 -672 1392 -672
WIRE 1552 -672 1440 -672
WIRE 16 -656 16 -672
WIRE -336 -640 -336 -672
WIRE 720 -640 720 -672
WIRE 784 -640 784 -672
WIRE 864 -640 864 -672
WIRE 16 -576 16 -592
WIRE -64 -560 -64 -624
WIRE 64 -560 -64 -560
WIRE 512 -560 512 -672
WIRE 512 -560 480 -560
WIRE -336 -544 -336 -560
WIRE 720 -544 720 -576
WIRE 784 -544 784 -576
WIRE 864 -544 864 -576
WIRE 1072 -544 1072 -672
WIRE 1232 -544 1232 -672
WIRE 1392 -544 1392 -672
WIRE 1552 -544 1552 -672
WIRE -192 -464 -192 -672
WIRE 64 -464 -192 -464
WIRE 1072 -432 1072 -480
WIRE 1232 -432 1232 -480
WIRE 1392 -432 1392 -480
WIRE 1552 -432 1552 -480
WIRE 944 -416 944 -672
WIRE -192 -368 -192 -464
WIRE 64 -368 -192 -368
WIRE 1072 -320 1072 -368
WIRE 1232 -320 1232 -368
WIRE 1392 -320 1392 -368
WIRE 1552 -320 1552 -368
WIRE 64 -272 16 -272
WIRE 944 -272 944 -336
WIRE 944 -272 480 -272
WIRE 944 -224 944 -272
WIRE -64 -176 -96 -176
WIRE 16 -176 16 -192
WIRE 16 -176 0 -176
WIRE 48 -176 16 -176
WIRE 64 -176 48 -176
WIRE 944 -112 944 -144
WIRE 16 -80 16 -176
WIRE 528 16 480 16
WIRE 608 16 528 16
WIRE 608 32 608 16
WIRE 528 48 528 16
WIRE -80 112 -96 112
WIRE 16 112 16 0
WIRE 16 112 0 112
WIRE 64 112 16 112
WIRE 528 144 528 112
WIRE 608 144 608 112
WIRE 48 208 48 -176
WIRE 64 208 48 208
WIRE 1072 208 1072 -256
WIRE 1072 208 480 208
WIRE -144 304 -336 304
WIRE 64 304 -144 304
WIRE 1232 304 1232 -256
WIRE 1232 304 480 304
WIRE -336 320 -336 304
WIRE 64 400 -192 400
WIRE 1392 400 1392 -256
WIRE 1392 400 480 400
WIRE -336 432 -336 400
WIRE -192 432 -192 400
WIRE 16 496 -64 496
WIRE 64 496 16 496
WIRE 1552 496 1552 -256
WIRE 1552 496 480 496
WIRE 16 528 16 496
WIRE -192 544 -192 512
WIRE -64 592 -64 576
WIRE 496 592 480 592
WIRE 608 592 576 592
WIRE 16 624 16 592
WIRE -64 672 -64 656
WIRE 176 688 176 656
WIRE 272 688 272 656
WIRE 368 688 368 656
FLAG 176 688 0
FLAG 272 688 0
FLAG 368 688 0
FLAG -336 -544 0
FLAG 720 -544 0
FLAG 784 -544 0
FLAG 864 -544 0
FLAG 944 -112 0
FLAG -272 -672 IN
FLAG 1440 -672 OUT
FLAG -64 672 0
FLAG 16 624 0
FLAG 608 144 0
FLAG 528 144 0
FLAG -96 -176 0
FLAG 608 592 0
FLAG -336 432 0
FLAG -96 112 0
FLAG 16 -576 0
FLAG -192 544 0
FLAG -144 304 DIM
SYMBOL voltage -336 -656 R0
SYMATTR InstName V1
SYMATTR Value 6
SYMBOL ind 192 -656 R270
WINDOW 0 32 56 VTop 2
WINDOW 3 5 56 VBottom 2
SYMATTR InstName L1
SYMATTR Value 47µ
SYMATTR SpiceLine Rser=19.5m
SYMBOL schottky 592 -656 R270
WINDOW 0 32 32 VTop 2
WINDOW 3 0 32 VBottom 2
SYMATTR InstName D1
SYMATTR Value PMEG3010BEA
SYMATTR Description Diode
SYMATTR Type diode
SYMBOL cap 768 -640 R0
WINDOW 123 26 76 Left 2
SYMATTR Value2 X2
SYMATTR InstName C2
SYMATTR Value 4.7µ
SYMBOL cap 848 -640 R0
SYMATTR InstName C3
SYMATTR Value 1µ
SYMBOL res 928 -432 R0
SYMATTR InstName R4
SYMATTR Value 226K
SYMBOL res 928 -240 R0
SYMATTR InstName R5
SYMATTR Value 15K
SYMBOL res 592 16 R0
SYMATTR InstName R6
SYMATTR Value 65.68K
SYMBOL res -48 480 M0
SYMATTR InstName R7
SYMATTR Value 8.06K
SYMBOL cap -48 592 M0
SYMATTR InstName C4
SYMATTR Value 68n
SYMBOL cap 32 528 M0
SYMATTR InstName C5
SYMATTR Value 2.2n
SYMBOL cap 512 112 M180
WINDOW 0 24 56 Left 2
WINDOW 3 24 8 Left 2
SYMATTR InstName C6
SYMATTR Value 100p
SYMBOL cap 0 -192 R90
WINDOW 0 0 32 VBottom 2
WINDOW 3 32 32 VTop 2
SYMATTR InstName C7
SYMATTR Value 1µ
SYMBOL res 480 576 M90
WINDOW 0 0 56 VBottom 2
WINDOW 3 32 56 VTop 2
SYMATTR InstName R9
SYMATTR Value 12.5K
SYMBOL LED 1056 -544 R0
SYMATTR InstName D2
SYMATTR Value AOT-2015
SYMATTR Description Diode
SYMATTR Type diode
SYMBOL cap 704 -640 R0
SYMATTR InstName C1
SYMATTR Value 47µ
SYMBOL voltage -336 304 M0
SYMATTR InstName V2
SYMATTR Value PULSE(0 3.3 0 10n 10n 0.3m 0.5m)
SYMBOL res 32 -176 R180
WINDOW 0 36 76 Left 2
WINDOW 3 37 50 Left 2
SYMATTR InstName R11
SYMATTR Value 100K
SYMBOL res 32 -96 M0
SYMATTR InstName R12
SYMATTR Value 100K
SYMBOL res 16 128 M270
WINDOW 0 32 56 VTop 2
WINDOW 3 0 56 VBottom 2
SYMATTR InstName R13
SYMATTR Value 48K
SYMBOL nmos -144 -624 R270
WINDOW 0 62 -1 VRight 2
WINDOW 3 66 55 VRight 2
SYMATTR InstName M1
SYMATTR Value AON6590A
SYMBOL cap 0 -656 R0
SYMATTR InstName C8
SYMATTR Value 10µ
SYMBOL voltage -192 416 M0
SYMATTR InstName V3
SYMATTR Value PULSE(0 3.3 0 10n 10n 0.5m 1m)
SYMBOL LED 1056 -432 R0
SYMATTR InstName D3
SYMATTR Value AOT-2015
SYMATTR Description Diode
SYMATTR Type diode
SYMBOL LED 1056 -320 R0
SYMATTR InstName D4
SYMATTR Value AOT-2015
SYMATTR Description Diode
SYMATTR Type diode
SYMBOL LED 1216 -544 R0
SYMATTR InstName D5
SYMATTR Value AOT-2015
SYMATTR Description Diode
SYMATTR Type diode
SYMBOL LED 1216 -432 R0
SYMATTR InstName D6
SYMATTR Value AOT-2015
SYMATTR Description Diode
SYMATTR Type diode
SYMBOL LED 1216 -320 R0
SYMATTR InstName D7
SYMATTR Value AOT-2015
SYMATTR Description Diode
SYMATTR Type diode
SYMBOL LED 1376 -544 R0
SYMATTR InstName D8
SYMATTR Value AOT-2015
SYMATTR Description Diode
SYMATTR Type diode
SYMBOL LED 1376 -432 R0
SYMATTR InstName D9
SYMATTR Value AOT-2015
SYMATTR Description Diode
SYMATTR Type diode
SYMBOL LED 1376 -320 R0
SYMATTR InstName D10
SYMATTR Value AOT-2015
SYMATTR Description Diode
SYMATTR Type diode
SYMBOL LED 1536 -544 R0
SYMATTR InstName D11
SYMATTR Value AOT-2015
SYMATTR Description Diode
SYMATTR Type diode
SYMBOL LED 1536 -432 R0
SYMATTR InstName D12
SYMATTR Value AOT-2015
SYMATTR Description Diode
SYMATTR Type diode
SYMBOL LED 1536 -320 R0
SYMATTR InstName D13
SYMATTR Value AOT-2015
SYMATTR Description Diode
SYMATTR Type diode
SYMBOL MAX25510 272 16 R0
SYMATTR InstName U2
TEXT 184 792 Left 2 !.tran 30m startup
TEXT 704 560 Left 2 ;Variable definition\n \nSIM_SPEED_MULT multiplier to speed up the start-up routine.\n        Reccomended value ranges from 1 to 10 though can be increased indefinitely,\n        However model performance is not guaranteed.\nENABLED_CH= write1 to 4\n        1 to enable channel 1\n        2 to enable both channels 1 and 2\n        3 to enable channels 1, 2 and 3\n        4 to enable all channels\n        Note: When disabling unused strings, it is necessary to start by disabling the \n        highest numbered current sinks first.
