Version 4
SHEET 1 936 832
WIRE -112 224 -144 224
WIRE 80 224 -32 224
WIRE 112 224 80 224
WIRE 384 224 336 224
WIRE 464 224 384 224
WIRE 464 256 464 224
WIRE 64 288 16 288
WIRE 112 288 64 288
WIRE 16 336 16 288
WIRE 464 352 464 336
WIRE 224 416 224 400
WIRE 16 464 16 416
FLAG -144 224 0
FLAG 16 464 0
FLAG 464 352 0
FLAG 224 416 0
FLAG 384 224 vCOM
FLAG 80 224 vNO
FLAG 64 288 vVccEN
SYMBOL voltage -16 224 M270
WINDOW 0 32 56 VTop 2
WINDOW 3 -32 56 VBottom 2
WINDOW 123 0 0 Left 0
WINDOW 39 0 0 Left 0
SYMATTR InstName V1
SYMATTR Value SINE(0 5.5 20)
SYMBOL res 448 240 R0
SYMATTR InstName R1
SYMATTR Value 49.9
SYMBOL voltage 16 320 R0
WINDOW 123 0 0 Left 0
WINDOW 39 0 0 Left 0
WINDOW 3 30 177 Left 2
SYMATTR Value PULSE(0 2.5 20n 20n 20n 150m 300m)
SYMATTR InstName V2
SYMBOL MAX20336 224 272 R0
SYMATTR InstName U1
TEXT -288 72 Left 2 !.tran 1
TEXT -288 8 Left 2 ;Note:\nSwitch shown for a logic 0 input
