Version 4
SHEET 1 1496 1352
WIRE 240 -32 128 -32
WIRE 432 -32 240 -32
WIRE 704 -32 432 -32
WIRE 128 -16 128 -32
WIRE 704 -16 704 -32
WIRE 432 16 432 -32
WIRE 240 64 240 -32
WIRE 256 64 240 64
WIRE 656 64 608 64
WIRE 128 80 128 64
WIRE 160 160 144 160
WIRE 256 160 240 160
WIRE 640 160 608 160
WIRE 640 176 640 160
WIRE 640 256 640 240
WIRE 640 256 608 256
WIRE 704 256 704 80
WIRE 704 256 640 256
WIRE 784 256 704 256
WIRE 912 256 864 256
WIRE 928 256 912 256
WIRE 1024 256 1008 256
WIRE 1120 256 1024 256
WIRE 1216 256 1120 256
WIRE 704 272 704 256
WIRE 1120 272 1120 256
WIRE 1216 272 1216 256
WIRE 96 352 64 352
WIRE 144 352 96 352
WIRE 256 352 144 352
WIRE 656 352 608 352
WIRE 96 368 96 352
WIRE 1120 368 1120 336
WIRE 1216 368 1216 352
WIRE 704 384 704 368
WIRE 96 448 96 432
WIRE 144 448 144 352
WIRE 256 448 144 448
WIRE 912 448 912 256
WIRE 912 448 608 448
WIRE 144 544 144 448
WIRE 160 544 144 544
WIRE 256 544 240 544
WIRE 1024 544 1024 256
WIRE 1024 544 608 544
WIRE 144 640 144 544
WIRE 256 640 144 640
WIRE 704 640 608 640
WIRE 256 736 192 736
WIRE 624 736 608 736
WIRE 192 768 192 736
WIRE 432 800 432 784
WIRE 192 864 192 848
WIRE 192 944 192 928
WIRE 64 976 64 352
WIRE 704 976 704 640
WIRE 704 976 64 976
FLAG 128 80 0
FLAG 144 160 0
FLAG 432 800 0
FLAG 1120 368 0
FLAG 1216 368 0
FLAG 128 -32 IN
FLAG 1216 256 OUT
FLAG 96 448 0
FLAG 704 384 0
FLAG 624 736 0
FLAG 192 944 0
SYMBOL voltage 128 -32 R0
SYMATTR InstName V1
SYMATTR Value 12
SYMBOL res 256 144 R90
WINDOW 0 0 56 VBottom 2
WINDOW 3 32 56 VTop 2
SYMATTR InstName R1
SYMATTR Value 12K
SYMBOL ind 768 272 R270
WINDOW 0 32 56 VTop 2
WINDOW 3 5 56 VBottom 2
SYMATTR InstName L1
SYMATTR Value 1.2µ
SYMBOL cap 1104 272 R0
WINDOW 123 24 78 Left 2
SYMATTR Value2 X2
SYMATTR InstName C5
SYMATTR Value 47µ
SYMBOL cap 80 368 R0
SYMATTR InstName C6
SYMATTR Value 1µ
SYMBOL res 1200 256 R0
SYMATTR InstName Rload
SYMATTR Value {5/7}
SYMBOL res 256 528 R90
WINDOW 0 0 56 VBottom 2
WINDOW 3 32 56 VTop 2
SYMATTR InstName R4
SYMATTR Value 10K
SYMBOL nmos 656 -16 R0
SYMATTR InstName M1
SYMATTR Value BSC034N03LS
SYMBOL cap 624 176 R0
SYMATTR InstName C1
SYMATTR Value 0.1µ
SYMBOL nmos 656 272 R0
SYMATTR InstName M2
SYMATTR Value BSC034N03LS
SYMBOL res 1024 240 R90
WINDOW 0 0 56 VBottom 2
WINDOW 3 32 56 VTop 2
SYMATTR InstName R5
SYMATTR Value 10m
SYMBOL res 176 752 R0
SYMATTR InstName R6
SYMATTR Value 100K
SYMBOL cap 176 864 R0
SYMATTR InstName C2
SYMATTR Value 1500p
SYMBOL MAX25206 432 400 R0
SYMATTR InstName U1
TEXT 352 840 Left 2 !.tran 5m startup
