Version 4
SHEET 1 940 680
WIRE -112 0 -160 0
WIRE 0 0 -32 0
WIRE 48 0 0 0
WIRE 448 0 400 0
WIRE 544 0 448 0
WIRE 656 0 544 0
WIRE 768 0 656 0
WIRE 880 0 768 0
WIRE 448 16 448 0
WIRE 880 16 880 0
WIRE 768 32 768 0
WIRE 544 64 544 0
WIRE 448 96 448 80
WIRE 448 96 400 96
WIRE 656 112 656 0
WIRE 768 112 768 96
WIRE 880 112 880 96
WIRE -112 160 -160 160
WIRE 48 160 -32 160
WIRE 544 208 544 144
WIRE 544 208 400 208
WIRE -112 320 -160 320
WIRE 48 320 -32 320
WIRE 656 320 656 192
WIRE 656 320 400 320
WIRE 656 368 656 320
WIRE 224 400 224 384
WIRE 656 480 656 448
FLAG -160 0 0
FLAG -160 160 0
FLAG -160 320 0
FLAG 224 400 0
FLAG 656 480 0
FLAG 0 0 IN
FLAG 880 0 OUT
FLAG 768 112 0
FLAG 880 112 0
SYMBOL MAX38908 224 112 R0
SYMATTR InstName U1
SYMBOL voltage -16 0 R90
WINDOW 0 -32 56 VBottom 2
WINDOW 3 32 56 VTop 2
WINDOW 123 0 0 Left 0
WINDOW 39 0 0 Left 0
SYMATTR InstName V1
SYMATTR Value PWL(0 0 100m 3)
SYMBOL voltage -16 160 R90
WINDOW 0 -32 56 VBottom 2
WINDOW 3 32 56 VTop 2
SYMATTR InstName V2
SYMATTR Value 12
SYMBOL voltage -16 320 R90
WINDOW 0 -32 56 VBottom 2
WINDOW 3 32 56 VTop 2
SYMATTR InstName V3
SYMATTR Value 3
SYMBOL cap 432 16 R0
SYMATTR InstName C1
SYMATTR Value 47n
SYMBOL res 640 96 R0
SYMATTR InstName R2
SYMATTR Value 10k
SYMBOL res 640 352 R0
SYMATTR InstName R3
SYMATTR Value 15k
SYMBOL res 528 48 R0
SYMATTR InstName R1
SYMATTR Value 100k
SYMBOL cap 752 32 R0
SYMATTR InstName C2
SYMATTR Value 22u
SYMBOL res 864 0 R0
SYMATTR InstName R4
SYMATTR Value 0.5
TEXT 720 536 Left 2 !.tran 0 1 0 startup
