Version 4
SHEET 1 1224 1196
WIRE 560 -112 480 -112
WIRE 656 -112 640 -112
WIRE 656 -96 656 -112
WIRE 480 0 480 -112
WIRE 352 32 64 32
WIRE 384 32 352 32
WIRE 64 48 64 32
WIRE 704 80 576 80
WIRE 800 80 704 80
WIRE 704 112 704 80
WIRE 800 128 800 80
WIRE 64 144 64 128
WIRE 352 144 64 144
WIRE 384 144 352 144
WIRE 64 176 64 144
WIRE 352 208 176 208
WIRE 384 208 352 208
WIRE 624 208 576 208
WIRE 656 208 624 208
WIRE 704 208 704 192
WIRE 800 208 800 192
WIRE 64 272 64 256
WIRE 352 288 288 288
WIRE 384 288 352 288
WIRE 608 288 576 288
WIRE 608 304 608 288
WIRE 176 336 176 208
WIRE 288 336 288 288
WIRE 480 368 480 352
WIRE 176 432 176 416
WIRE 288 432 288 416
FLAG 480 368 0
FLAG 656 -96 0
FLAG 480 -112 VDD
FLAG 624 208 VDD
FLAG 608 304 0
FLAG 64 272 0
FLAG 176 432 0
FLAG 288 432 0
FLAG 704 208 0
FLAG 800 208 0
FLAG 800 80 OUT
FLAG 352 32 RS+
FLAG 352 144 RS-
FLAG 352 208 G2
FLAG 352 288 G1
SYMBOL voltage 544 -112 R270
WINDOW 0 32 56 VTop 2
WINDOW 3 -32 56 VBottom 2
SYMATTR InstName V1
SYMATTR Value 3.3
SYMBOL voltage 64 32 R0
WINDOW 3 40 50 Left 2
WINDOW 123 42 85 Left 2
WINDOW 39 0 0 Left 0
SYMATTR Value SINE(0 10m 1k)
SYMATTR Value2 AC 1
SYMATTR InstName Vsense
SYMBOL voltage 64 160 R0
WINDOW 123 0 0 Left 0
WINDOW 39 0 0 Left 0
SYMATTR InstName Vcm
SYMATTR Value 48
SYMBOL voltage 176 320 R0
WINDOW 123 0 0 Left 0
WINDOW 39 0 0 Left 0
SYMATTR InstName VG2
SYMATTR Value 0
SYMBOL voltage 288 320 R0
SYMATTR InstName VG1
SYMATTR Value 0
SYMBOL res 688 96 R0
SYMATTR InstName R1
SYMATTR Value 10k
SYMBOL cap 784 128 R0
SYMATTR InstName C1
SYMATTR Value 10p
SYMBOL MAX49925 480 176 R0
SYMATTR InstName U1
TEXT 40 496 Left 2 !.op\n.tran 2m
