Version 4
SHEET 1 1720 800
WIRE 624 256 304 256
WIRE 64 288 64 272
WIRE 416 352 416 320
WIRE 304 368 304 256
WIRE 400 368 304 368
WIRE 624 384 624 256
WIRE 624 384 464 384
WIRE 720 384 624 384
WIRE 64 400 64 368
WIRE 64 400 32 400
WIRE 400 400 304 400
WIRE 32 416 32 400
WIRE 624 416 624 384
WIRE 720 432 720 384
WIRE 64 448 64 400
WIRE 416 448 416 416
WIRE 448 448 448 416
WIRE 304 496 304 400
WIRE 624 528 624 496
WIRE 720 528 720 496
WIRE 64 544 64 528
WIRE 304 592 304 576
FLAG 720 384 OUT
FLAG 64 272 Vcc
FLAG 64 544 Vee
FLAG 416 320 Vcc
FLAG 416 448 Vee
FLAG 32 416 0
FLAG 304 592 0
FLAG 624 528 0
FLAG 304 400 IN
FLAG 720 528 0
FLAG 448 448 Vcc
SYMBOL voltage 64 432 R0
WINDOW 123 0 0 Left 2
SYMATTR InstName Vee
SYMATTR Value 2.5
SYMBOL voltage 64 272 R0
WINDOW 123 0 0 Left 2
SYMATTR InstName Vcc
SYMATTR Value 2.5
SYMBOL res 608 400 R0
SYMATTR InstName RL
SYMATTR Value 10k
SYMBOL voltage 304 480 R0
WINDOW 123 0 0 Left 0
WINDOW 39 0 0 Left 0
SYMATTR InstName V1
SYMATTR Value SINE(0 50m 100k)
SYMBOL cap 704 432 R0
SYMATTR InstName CL
SYMATTR Value 15p
SYMBOL MAX40110 432 400 R0
SYMATTR InstName U1
TEXT 16 632 Left 2 !.tran 10u
