Version 4
SHEET 1 1272 680
WIRE 64 -144 48 -144
WIRE 144 -144 64 -144
WIRE 176 -144 144 -144
WIRE 512 -144 464 -144
WIRE 48 -128 48 -144
WIRE 512 -128 512 -144
WIRE 144 -96 144 -144
WIRE 176 -96 144 -96
WIRE 48 -32 48 -48
WIRE 512 -32 512 -64
WIRE 512 -32 464 -32
WIRE 608 -32 512 -32
WIRE 736 -32 688 -32
WIRE 832 -32 736 -32
WIRE 960 -32 832 -32
WIRE 1024 -32 960 -32
WIRE 1056 -32 1024 -32
WIRE 736 -16 736 -32
WIRE 1056 -16 1056 -32
WIRE 832 0 832 -32
WIRE 960 0 960 -32
WIRE 176 16 112 16
WIRE 736 64 736 48
WIRE 1056 80 1056 64
WIRE 832 96 832 80
WIRE 832 96 464 96
WIRE 960 96 960 64
WIRE 960 96 832 96
WIRE 112 128 112 16
WIRE 176 128 112 128
WIRE 832 128 832 96
WIRE 480 224 464 224
WIRE 832 224 832 208
WIRE 112 272 112 128
WIRE 112 272 32 272
WIRE 176 272 112 272
WIRE 32 288 32 272
WIRE 512 288 464 288
WIRE 608 288 512 288
WIRE 320 352 320 336
WIRE 32 368 32 352
WIRE 112 400 112 272
WIRE 496 400 112 400
WIRE 608 400 608 288
WIRE 608 400 576 400
FLAG 48 -32 0
FLAG 32 368 0
FLAG 320 352 0
FLAG 736 64 0
FLAG 1056 80 0
FLAG 64 -144 vIN
FLAG 1024 -32 vOUT
FLAG 480 224 0
FLAG 832 224 0
FLAG 512 288 PGOOD
SYMBOL voltage 48 -144 R0
WINDOW 123 0 0 Left 0
WINDOW 39 0 0 Left 0
SYMATTR InstName V1
SYMATTR Value 12
SYMBOL cap 16 288 R0
SYMATTR InstName C1
SYMATTR Value 2.2µ
SYMBOL ind 592 -16 R270
WINDOW 0 32 56 VTop 2
WINDOW 3 5 56 VBottom 2
SYMATTR InstName L1
SYMATTR Value 2.2µ
SYMATTR SpiceLine Rser=13.5m
SYMBOL cap 720 -16 R0
SYMATTR InstName C3
SYMATTR Value 47µ
SYMATTR SpiceLine Rser=2m
SYMBOL res 1040 -32 R0
SYMATTR InstName Rload
SYMATTR Value 1.32
SYMBOL cap 496 -128 R0
SYMATTR InstName C2
SYMATTR Value 0.1µ
SYMBOL res 592 384 R90
WINDOW 0 0 56 VBottom 2
WINDOW 3 32 56 VTop 2
SYMATTR InstName R1
SYMATTR Value 20k
SYMBOL res 816 -16 R0
SYMATTR InstName R2
SYMATTR Value 49.9k
SYMBOL res 816 112 R0
SYMATTR InstName R3
SYMATTR Value 15.8k
SYMBOL cap 944 0 R0
SYMATTR InstName C4
SYMATTR Value 47p
SYMBOL MAX42402B 320 96 R0
SYMATTR InstName U1
TEXT 648 376 Left 2 !.tran 4m startup
