Version 4
SHEET 1 1240 700
WIRE 720 -1216 512 -1216
WIRE 144 -1136 144 -1152
WIRE 512 -1120 512 -1216
WIRE 544 -1120 512 -1120
WIRE 720 -1104 720 -1216
WIRE 720 -1104 608 -1104
WIRE 784 -1104 720 -1104
WIRE 544 -1088 432 -1088
WIRE 784 -1088 784 -1104
WIRE 432 -1072 432 -1088
WIRE 560 -1056 560 -1072
WIRE 144 -1040 144 -1056
WIRE 784 -992 784 -1008
WIRE 432 -976 432 -992
FLAG 144 -1152 +V
FLAG 144 -1040 0
FLAG 432 -976 0
FLAG 784 -1104 OUT
FLAG 432 -1088 IN
FLAG 560 -1136 +V
FLAG 784 -992 0
FLAG 592 -1072 +V
FLAG 560 -1056 0
SYMBOL voltage 144 -1152 R0
WINDOW 123 0 0 Left 2
WINDOW 39 0 0 Left 2
SYMATTR InstName V1
SYMATTR Value 3.3
SYMBOL voltage 432 -1088 R0
WINDOW 123 24 146 Left 2
WINDOW 39 24 125 Left 2
SYMATTR InstName Vin
SYMATTR Value SINE(1.65 50m 10k)
SYMBOL res 768 -1104 R0
SYMATTR InstName Rload
SYMATTR Value 10k
SYMBOL MAX40263 576 -1088 R0
WINDOW 0 7 -76 Left 2
WINDOW 3 4 -53 Left 2
SYMATTR InstName U1
TEXT 768 -936 Left 2 !.tran 1m
