Version 4
SHEET 1 2888 1548
WIRE -1600 -336 -1600 -368
WIRE -1728 -272 -1904 -272
WIRE -1696 -272 -1728 -272
WIRE -1904 -256 -1904 -272
WIRE -1456 -240 -1504 -240
WIRE -1408 -240 -1456 -240
WIRE -1312 -240 -1408 -240
WIRE -1408 -224 -1408 -240
WIRE -1312 -224 -1312 -240
WIRE -1696 -208 -1776 -208
WIRE -1776 -192 -1776 -208
WIRE -1904 -160 -1904 -176
WIRE -1728 -144 -1776 -144
WIRE -1696 -144 -1728 -144
WIRE -1408 -128 -1408 -144
WIRE -1312 -128 -1312 -160
WIRE -1776 -48 -1776 -144
WIRE -1600 -16 -1600 -32
WIRE -1776 48 -1776 32
FLAG -1904 -160 0
FLAG -1776 -192 0
FLAG -1776 48 0
FLAG -1600 -368 +V
FLAG -1408 -128 0
FLAG -1600 -16 0
FLAG -1312 -128 0
FLAG -2064 -176 0
FLAG -2064 -256 +V
FLAG -1728 -272 vNO
FLAG -1728 -144 vIN
FLAG -1456 -240 vCOM
SYMBOL voltage -1904 -272 R0
SYMATTR InstName V1
SYMATTR Value 3
SYMBOL voltage -1776 -64 R0
WINDOW 3 34 96 Left 2
SYMATTR Value PULSE(0 3.3 0 20n 20n 10u 20u)
SYMATTR InstName V3
SYMBOL res -1424 -240 R0
SYMATTR InstName R1
SYMATTR Value 301
SYMBOL cap -1328 -224 R0
SYMATTR InstName C1
SYMATTR Value 36p
SYMBOL voltage -2064 -272 R0
WINDOW 123 0 0 Left 0
WINDOW 39 0 0 Left 0
SYMATTR InstName V4
SYMATTR Value 3.3
SYMBOL MAX4730 -1600 -192 R0
SYMATTR InstName U1
TEXT -1488 -16 Left 2 !.tran 100u
TEXT -2008 -560 Left 2 ;Notes:\nSwitch shown for a logic 0 input\nOn resistance performance at 5V supply\nCharge injection is not included\nBandwidth is 266 MHz
