Version 4
SHEET 1 880 680
WIRE -192 -32 -208 -32
WIRE -48 -32 -64 -32
WIRE 48 -32 32 -32
WIRE 96 -32 48 -32
WIRE 224 -32 176 -32
WIRE -208 0 -208 -32
WIRE 112 64 112 48
WIRE 48 80 48 -32
WIRE 96 80 48 80
WIRE -208 96 -208 80
WIRE 224 96 224 -32
WIRE 224 96 160 96
WIRE 336 96 224 96
WIRE 96 112 48 112
WIRE 336 112 336 96
WIRE 112 144 112 128
WIRE 144 144 144 128
WIRE 48 160 48 112
WIRE 336 208 336 192
WIRE -64 272 -64 -32
WIRE 48 272 48 240
WIRE 48 272 -64 272
WIRE -64 288 -64 272
WIRE -64 384 -64 368
FLAG 336 208 0
FLAG 336 96 OUT
FLAG 48 112 IN
FLAG -64 384 0
FLAG -208 96 0
FLAG -208 -32 V+
FLAG 112 48 V+
FLAG 144 144 V+
FLAG 112 144 0
SYMBOL MAX44280 128 96 R0
SYMATTR InstName U1
SYMBOL voltage 48 144 R0
WINDOW 123 0 0 Left 0
WINDOW 39 0 0 Left 0
WINDOW 0 43 50 Left 2
WINDOW 3 38 80 Left 2
SYMATTR InstName V1
SYMATTR Value SINE(0 10m 1Meg)
SYMBOL voltage -208 -16 R0
SYMATTR InstName V2
SYMATTR Value 3.3
SYMBOL res 320 96 R0
SYMATTR InstName R1
SYMATTR Value 10k
SYMBOL voltage -64 272 R0
SYMATTR InstName V4
SYMATTR Value 1.65
SYMBOL res 192 -48 R90
WINDOW 0 0 56 VBottom 2
WINDOW 3 32 56 VTop 2
SYMATTR InstName R2
SYMATTR Value 1k
SYMBOL res 48 -48 R90
WINDOW 0 0 56 VBottom 2
WINDOW 3 32 56 VTop 2
SYMATTR InstName R3
SYMATTR Value 250
TEXT -248 376 Left 2 !.tran 2u
