Version 4
SHEET 1 1584 1196
WIRE 560 -112 480 -112
WIRE 688 -112 640 -112
WIRE 688 -96 688 -112
WIRE 480 0 480 -112
WIRE 352 32 -32 32
WIRE 384 32 352 32
WIRE -32 48 -32 32
WIRE 704 80 576 80
WIRE 800 80 704 80
WIRE 704 112 704 80
WIRE 800 128 800 80
WIRE -32 144 -32 128
WIRE 352 144 -32 144
WIRE 384 144 352 144
WIRE -32 176 -32 144
WIRE 352 208 80 208
WIRE 384 208 352 208
WIRE 624 208 576 208
WIRE 656 208 624 208
WIRE 704 208 704 192
WIRE 800 208 800 192
WIRE 352 256 192 256
WIRE 384 256 352 256
WIRE -32 272 -32 256
WIRE 352 304 304 304
WIRE 384 304 352 304
WIRE 608 304 576 304
WIRE 608 320 608 304
WIRE 80 336 80 208
WIRE 192 336 192 256
WIRE 304 336 304 304
WIRE 480 368 480 352
WIRE 80 432 80 416
WIRE 192 432 192 416
WIRE 304 432 304 416
FLAG 480 368 0
FLAG 688 -96 0
FLAG 480 -112 VDD
FLAG 624 208 VDD
FLAG 608 320 0
FLAG -32 272 0
FLAG 80 432 0
FLAG 192 432 0
FLAG 304 432 0
FLAG 704 208 0
FLAG 800 208 0
FLAG 800 80 OUT
FLAG 352 32 RS+
FLAG 352 144 RS-
FLAG 352 208 G2
FLAG 352 256 G1
FLAG 352 304 G0
SYMBOL voltage 544 -112 R270
WINDOW 0 32 56 VTop 2
WINDOW 3 -32 56 VBottom 2
SYMATTR InstName V1
SYMATTR Value 5
SYMBOL voltage -32 32 R0
WINDOW 3 40 50 Left 2
WINDOW 123 42 85 Left 2
WINDOW 39 0 0 Left 0
SYMATTR Value SINE(0 10m 1k)
SYMATTR Value2 AC 1
SYMATTR InstName Vsense
SYMBOL voltage -32 160 R0
WINDOW 123 0 0 Left 0
WINDOW 39 0 0 Left 0
SYMATTR InstName Vcm
SYMATTR Value 50
SYMBOL voltage 80 320 R0
WINDOW 123 0 0 Left 0
WINDOW 39 0 0 Left 0
SYMATTR InstName VG2
SYMATTR Value 0
SYMBOL voltage 192 320 R0
SYMATTR InstName VG1
SYMATTR Value 0
SYMBOL voltage 304 320 R0
SYMATTR InstName VG0
SYMATTR Value 0
SYMBOL res 688 96 R0
SYMATTR InstName R1
SYMATTR Value 10k
SYMBOL cap 784 128 R0
SYMATTR InstName C1
SYMATTR Value 10p
SYMBOL MAX49918 480 176 R0
SYMATTR InstName U2
TEXT 720 368 Left 2 !.op\n.tran 2m
