Version 4
SHEET 1 2172 1360
WIRE 480 -464 400 -464
WIRE 592 -464 544 -464
WIRE 400 -352 400 -464
WIRE 464 -352 400 -352
WIRE 592 -352 544 -352
WIRE 400 -240 400 -352
WIRE 224 -176 160 -176
WIRE 272 -176 224 -176
WIRE 224 -112 80 -112
WIRE 272 -112 224 -112
WIRE 224 -48 0 -48
WIRE 272 -48 224 -48
WIRE 224 16 -80 16
WIRE 272 16 224 16
WIRE 576 48 528 48
WIRE 624 48 576 48
WIRE 704 48 624 48
WIRE 224 80 160 80
WIRE 272 80 224 80
WIRE 624 80 624 48
WIRE 704 96 704 48
WIRE 224 144 80 144
WIRE 272 144 224 144
WIRE 624 192 624 160
WIRE 704 192 704 160
WIRE 224 208 0 208
WIRE 272 208 224 208
WIRE 224 272 -80 272
WIRE 272 272 224 272
WIRE 224 336 160 336
WIRE 272 336 224 336
WIRE 576 336 528 336
WIRE 656 336 576 336
WIRE 656 384 656 336
WIRE 224 400 80 400
WIRE 272 400 224 400
WIRE 224 464 0 464
WIRE 272 464 224 464
WIRE 656 496 656 464
WIRE 464 544 464 512
WIRE 224 592 176 592
WIRE 336 592 336 512
WIRE 336 592 288 592
WIRE 224 704 176 704
WIRE 336 704 336 592
WIRE 336 704 304 704
FLAG 592 -352 0
FLAG 592 -464 0
FLAG 80 -176 0
FLAG 0 -112 0
FLAG -80 -48 0
FLAG -160 16 0
FLAG 80 80 0
FLAG 0 144 0
FLAG -80 208 0
FLAG -160 272 0
FLAG 176 704 0
FLAG 176 592 0
FLAG 656 496 0
FLAG 624 192 0
FLAG 704 192 0
FLAG 464 544 0
FLAG 80 336 0
FLAG 0 400 0
FLAG -80 464 0
FLAG 576 48 vCOM
FLAG 576 336 vINH
FLAG 224 336 vADDA
FLAG 224 400 vADDB
FLAG 224 464 vADDC
FLAG 224 -176 vNO0
FLAG 224 -112 vNO1
FLAG 224 -48 vNO2
FLAG 224 16 vNO3
FLAG 224 80 vNO4
FLAG 224 144 vNO5
FLAG 224 208 vNO6
FLAG 224 272 vNO7
SYMBOL voltage 176 -176 R90
WINDOW 0 -32 56 VBottom 2
WINDOW 3 -1 15 VTop 2
WINDOW 123 0 0 Left 0
WINDOW 39 0 0 Left 0
SYMATTR InstName V1
SYMATTR Value 1
SYMBOL voltage 96 -112 R90
WINDOW 0 -32 56 VBottom 2
WINDOW 3 3 14 VTop 2
WINDOW 123 0 0 Left 0
WINDOW 39 0 0 Left 0
SYMATTR InstName V2
SYMATTR Value 2
SYMBOL voltage 16 -48 R90
WINDOW 0 -32 56 VBottom 2
WINDOW 3 1 16 VTop 2
WINDOW 123 0 0 Left 0
WINDOW 39 0 0 Left 0
SYMATTR InstName V3
SYMATTR Value 3
SYMBOL voltage -64 16 R90
WINDOW 0 -32 56 VBottom 2
WINDOW 3 1 17 VTop 2
WINDOW 123 0 0 Left 0
WINDOW 39 0 0 Left 0
SYMATTR InstName V4
SYMATTR Value 4
SYMBOL voltage 176 80 R90
WINDOW 0 -32 56 VBottom 2
WINDOW 3 8 16 VTop 2
WINDOW 123 0 0 Left 0
WINDOW 39 0 0 Left 0
SYMATTR InstName V5
SYMATTR Value -1
SYMBOL voltage 96 144 R90
WINDOW 0 -32 56 VBottom 2
WINDOW 3 5 14 VTop 2
WINDOW 123 0 0 Left 0
WINDOW 39 0 0 Left 0
SYMATTR InstName V6
SYMATTR Value -2
SYMBOL voltage 16 208 R90
WINDOW 0 -32 56 VBottom 2
WINDOW 3 2 13 VTop 2
WINDOW 123 0 0 Left 0
WINDOW 39 0 0 Left 0
SYMATTR InstName V7
SYMATTR Value -3
SYMBOL voltage -64 272 R90
WINDOW 0 -32 56 VBottom 2
WINDOW 3 1 8 VTop 2
WINDOW 123 0 0 Left 0
WINDOW 39 0 0 Left 0
SYMATTR InstName V8
SYMATTR Value -4
SYMBOL voltage 448 -352 M90
WINDOW 0 -32 56 VBottom 2
WINDOW 3 32 56 VTop 2
WINDOW 123 0 0 Left 0
WINDOW 39 0 0 Left 0
SYMATTR InstName V18
SYMATTR Value 5
SYMBOL voltage 320 704 R90
WINDOW 0 -32 56 VBottom 2
WINDOW 3 32 56 VTop 2
WINDOW 123 0 0 Left 0
WINDOW 39 0 0 Left 0
SYMATTR InstName V17
SYMATTR Value -5
SYMBOL voltage 656 368 R0
WINDOW 0 58 2 Top 2
WINDOW 3 213 128 Bottom 2
WINDOW 123 0 0 Left 0
WINDOW 39 0 0 Left 0
SYMATTR InstName V19
SYMATTR Value PULSE(0 3 0 10n 10n 10u 20u)
SYMBOL res 608 64 R0
SYMATTR InstName R1
SYMATTR Value 301
SYMBOL cap 480 -448 R270
WINDOW 0 32 32 VTop 2
WINDOW 3 0 32 VBottom 2
SYMATTR InstName C1
SYMATTR Value 0.1µ
SYMBOL cap 288 576 R90
WINDOW 0 0 32 VBottom 2
WINDOW 3 32 32 VTop 2
SYMATTR InstName C2
SYMATTR Value 0.1µ
SYMBOL cap 688 96 R0
SYMATTR InstName C3
SYMATTR Value 36p
SYMBOL voltage 176 336 R90
WINDOW 0 -32 56 VBottom 2
WINDOW 3 32 56 VTop 2
WINDOW 123 0 0 Left 0
WINDOW 39 0 0 Left 0
SYMATTR InstName V20
SYMATTR Value 0
SYMBOL voltage 96 400 R90
WINDOW 0 -32 56 VBottom 2
WINDOW 3 32 56 VTop 2
WINDOW 123 0 0 Left 0
WINDOW 39 0 0 Left 0
SYMATTR InstName V21
SYMATTR Value 0
SYMBOL voltage 16 464 R90
WINDOW 0 -32 56 VBottom 2
WINDOW 3 32 56 VTop 2
WINDOW 123 0 0 Left 0
WINDOW 39 0 0 Left 0
SYMATTR InstName V22
SYMATTR Value 0
SYMBOL MAX4051A 400 80 R0
SYMATTR InstName U1
TEXT 408 616 Left 2 !.tran 100u
TEXT -344 -512 Left 2 ;Notes:\nSwitch shown for a logic 0 input\nRon modeled at ±5V\nOff isolation -104dB at 100KHz\nCrosstalk -114dB at 100KHz
