Version 4
SHEET 1 2580 932
WIRE 304 -32 160 -32
WIRE 448 -32 304 -32
WIRE 464 -32 448 -32
WIRE 560 -32 544 -32
WIRE 576 -32 560 -32
WIRE 736 -32 672 -32
WIRE 832 -32 736 -32
WIRE 960 -32 832 -32
WIRE 160 -16 160 -32
WIRE 832 -16 832 -32
WIRE 960 -16 960 -32
WIRE 1120 0 1008 0
WIRE 448 16 448 -32
WIRE 1120 16 1120 0
WIRE 160 80 160 64
WIRE 832 80 832 48
WIRE 960 80 960 64
WIRE 304 96 304 -32
WIRE 1120 112 1120 96
WIRE 448 144 448 96
WIRE 560 144 560 -32
WIRE 656 144 656 16
WIRE 736 144 736 -32
WIRE 304 208 304 176
WIRE 368 208 304 208
WIRE 400 208 368 208
WIRE 304 224 304 208
WIRE 368 240 368 208
WIRE 400 240 368 240
WIRE 304 304 304 288
WIRE 848 320 784 320
WIRE 976 320 928 320
WIRE 400 336 160 336
WIRE 976 352 976 320
WIRE 816 368 784 368
WIRE 160 400 160 336
WIRE 816 448 816 432
WIRE 976 448 976 432
WIRE 592 464 592 432
WIRE 160 496 160 480
FLAG 304 304 0
FLAG 816 448 0
FLAG 592 464 0
FLAG 832 80 0
FLAG 160 80 0
FLAG 160 -32 IN
FLAG 160 496 0
FLAG 960 -32 OUT
FLAG 960 80 0
FLAG 1008 48 0
FLAG 1120 112 0
FLAG 976 448 0
FLAG 160 336 EN
SYMBOL res 288 80 R0
SYMATTR InstName R1
SYMATTR Value 10
SYMBOL cap 800 368 R0
SYMATTR InstName C3
SYMATTR Value 330n
SYMBOL nmos 576 16 R270
WINDOW 0 54 47 VTop 2
WINDOW 3 95 11 VRight 2
SYMATTR InstName Q1
SYMATTR Value BSO040N03MS
SYMBOL cap 816 -16 R0
SYMATTR InstName C2
SYMATTR Value 150µ
SYMBOL voltage 160 -32 R0
WINDOW 123 0 0 Left 2
WINDOW 39 0 0 Left 2
SYMATTR InstName V1
SYMATTR Value 5
SYMBOL voltage 160 384 R0
WINDOW 123 24 138 Left 2
WINDOW 39 24 117 Left 2
SYMATTR Value pulse(0 2 600u 1u 1u 8 9 1)
SYMATTR InstName V2
SYMBOL cap 288 224 R0
SYMATTR InstName C1
SYMATTR Value 1µ
SYMBOL res 432 0 R0
SYMATTR InstName R2
SYMATTR Value 750
SYMBOL sw 960 80 R180
WINDOW 0 -23 102 Right 2
WINDOW 3 -26 2 Right 2
SYMATTR InstName S1
SYMATTR Value SHORT
SYMBOL voltage 1120 0 R0
WINDOW 123 0 0 Left 2
WINDOW 39 0 0 Left 2
SYMATTR InstName V3
SYMATTR Value PULSE(0 1 240m 1m 1m 10m)
SYMBOL res 944 304 R90
WINDOW 0 0 56 VBottom 2
WINDOW 3 32 56 VTop 2
SYMATTR InstName R4
SYMATTR Value 20K
SYMBOL voltage 976 336 R0
WINDOW 123 0 0 Left 2
WINDOW 39 0 0 Left 2
SYMATTR InstName V4
SYMATTR Value 5
SYMBOL res 560 -48 R90
WINDOW 0 0 56 VBottom 2
WINDOW 3 32 56 VTop 2
SYMATTR InstName R5
SYMATTR Value 5m
SYMBOL MAX5924A 592 288 R0
SYMATTR InstName U1
TEXT 448 568 Left 2 !.tran 600m startup
TEXT 720 568 Left 2 !.model SHORT SW(Ron=10m Roff=5K Vt=.5 Vh=-.4)
