Version 4
SHEET 1 4692 3016
WIRE 1168 1568 704 1568
WIRE 1264 1568 1168 1568
WIRE 1696 1568 1264 1568
WIRE 1984 1568 1696 1568
WIRE 2656 1568 1984 1568
WIRE 1264 1584 1264 1568
WIRE 1984 1600 1984 1568
WIRE 1696 1616 1696 1568
WIRE 1264 1696 1264 1664
WIRE 1504 1696 1264 1696
WIRE 1984 1696 1984 1680
WIRE 1984 1696 1888 1696
WIRE 2896 1696 1984 1696
WIRE 1264 1712 1264 1696
WIRE 2656 1744 2656 1568
WIRE 2656 1744 2464 1744
WIRE 2752 1744 2656 1744
WIRE 2848 1744 2752 1744
WIRE 2848 1776 2848 1744
WIRE 2464 1792 2464 1744
WIRE 2656 1792 2656 1744
WIRE 2896 1792 2896 1696
WIRE 2416 1808 2304 1808
WIRE 1168 1824 1168 1568
WIRE 1264 1824 1264 1792
WIRE 1504 1824 1264 1824
WIRE 1984 1824 1888 1824
WIRE 2160 1824 2064 1824
WIRE 1264 1840 1264 1824
WIRE 2304 1856 2304 1808
WIRE 704 1872 704 1568
WIRE 2416 1904 2416 1856
WIRE 2464 1904 2464 1872
WIRE 2464 1904 2416 1904
WIRE 2656 1904 2656 1856
WIRE 2656 1904 2464 1904
WIRE 2752 1904 2656 1904
WIRE 2848 1904 2848 1856
WIRE 2848 1904 2752 1904
WIRE 2896 1904 2896 1840
WIRE 2896 1904 2848 1904
WIRE 1264 1952 1264 1920
WIRE 1504 1952 1264 1952
WIRE 1952 2000 1888 2000
WIRE 2160 2000 2160 1824
WIRE 2160 2000 1952 2000
WIRE 2304 2000 2304 1936
WIRE 2304 2000 2160 2000
WIRE 2656 2000 2656 1904
WIRE 2656 2000 2304 2000
WIRE 1168 2016 1168 1888
WIRE 1504 2016 1168 2016
WIRE 1952 2032 1952 2000
WIRE 2160 2064 2160 2000
WIRE 1504 2080 1360 2080
WIRE 1168 2112 1168 2016
WIRE 1264 2112 1264 1952
WIRE 1360 2112 1360 2080
WIRE 1504 2144 1456 2144
WIRE 1952 2144 1952 2096
WIRE 1952 2144 1888 2144
WIRE 2016 2144 1952 2144
WIRE 2112 2144 2096 2144
WIRE 704 2272 704 1952
WIRE 1168 2272 1168 2192
WIRE 1168 2272 704 2272
WIRE 1264 2272 1264 2192
WIRE 1264 2272 1168 2272
WIRE 1360 2272 1360 2192
WIRE 1360 2272 1264 2272
WIRE 1456 2272 1456 2144
WIRE 1456 2272 1360 2272
WIRE 1696 2272 1696 2224
WIRE 1696 2272 1456 2272
WIRE 2160 2272 2160 2160
WIRE 2160 2272 1696 2272
WIRE 1696 2304 1696 2272
FLAG 1696 2304 0
FLAG 704 1568 IN
FLAG 2752 1744 OUT+
FLAG 2752 1904 OUT-
SYMBOL res 2112 2128 R90
WINDOW 0 0 56 VBottom 2
WINDOW 3 32 56 VTop 2
SYMATTR InstName R5
SYMATTR Value 10
SYMBOL cap 1936 2032 R0
SYMATTR InstName C2
SYMATTR Value 4.7n
SYMBOL nmos 2112 2064 R0
WINDOW 0 68 25 Left 2
WINDOW 3 101 51 Top 2
SYMATTR InstName M1
SYMATTR Value IRF1310
SYMBOL res 1248 1696 R0
SYMATTR InstName R3
SYMATTR Value 316
SYMBOL res 1248 1568 R0
SYMATTR InstName R4
SYMATTR Value 97.6k
SYMBOL cap 1152 1824 R0
SYMATTR InstName C1
SYMATTR Value 0.01µ
SYMBOL res 1248 2096 R0
SYMATTR InstName R7
SYMATTR Value 1.58k
SYMBOL cap 2640 1792 R0
SYMATTR InstName C3
SYMATTR Value 100µ
SYMATTR SpiceLine Rser=25m
SYMBOL voltage 2304 1840 R0
SYMATTR InstName V3
SYMATTR Value PWL(0 0 360m 0 360.001m 1)
SYMBOL sw 2464 1888 M180
WINDOW 0 24 101 Left 2
WINDOW 3 18 17 Left 2
SYMATTR InstName S2
SYMATTR Value SoftShort
SYMBOL sw 2848 1872 R180
WINDOW 0 24 101 Left 2
WINDOW 3 18 17 Left 2
SYMATTR InstName Sload
SYMATTR Value Load
SYMBOL voltage 704 1968 M180
WINDOW 3 24 16 Left 2
WINDOW 0 24 96 Left 2
SYMATTR Value PWL(0 0 10m -48 280m -48 280.1m -70)
SYMATTR InstName V1
SYMBOL res 1248 1824 R0
SYMATTR InstName R2
SYMATTR Value 1.4k
SYMBOL res 1152 2096 R0
SYMATTR InstName R6
SYMATTR Value 120k
SYMBOL res 2080 1808 R90
WINDOW 0 0 56 VBottom 2
WINDOW 3 32 56 VTop 2
SYMATTR InstName R8
SYMATTR Value 1.47k
SYMBOL res 1344 2096 R0
SYMATTR InstName R1
SYMATTR Value 2k
SYMBOL res 1968 1584 R0
SYMATTR InstName R9
SYMATTR Value 20k
SYMBOL MAX5938L 1696 1920 R0
SYMATTR InstName U1
TEXT 2304 2168 Left 2 !.tran 400m startup
TEXT 2304 2104 Left 2 !.model SoftShort SW(Ron=3 Roff=10G Vt=0.5 Vh=-0.1)
TEXT 2304 2136 Left 2 !.model Load SW(Ron=40 Roff=10G Vt=0.5 Vh=-0.1)
