Version 4
SHEET 1 1384 692
WIRE 16 32 -32 32
WIRE 160 32 16 32
WIRE 160 48 160 32
WIRE 16 80 16 32
WIRE 48 80 16 80
WIRE 336 80 272 80
WIRE 432 80 336 80
WIRE 528 80 432 80
WIRE 336 96 336 80
WIRE 432 96 432 80
WIRE 528 112 528 80
WIRE -32 176 -32 32
WIRE 432 192 432 160
WIRE 336 208 336 176
WIRE 336 208 272 208
WIRE 528 208 528 192
WIRE 160 256 160 240
WIRE -32 272 -32 256
FLAG 160 256 0
FLAG 432 192 0
FLAG -32 272 0
FLAG 160 32 IN
FLAG 528 80 OUT
FLAG 528 208 0
SYMBOL res 320 80 R0
SYMATTR InstName R1
SYMATTR Value 1m
SYMBOL cap 416 96 R0
SYMATTR InstName C1
SYMATTR Value 1µ
SYMBOL voltage -32 160 R0
WINDOW 123 0 0 Left 0
WINDOW 39 0 0 Left 0
SYMATTR InstName V1
SYMATTR Value 3
SYMBOL current 528 112 R0
WINDOW 123 0 0 Left 0
WINDOW 39 0 0 Left 0
WINDOW 0 33 84 Left 2
WINDOW 3 27 127 Left 2
SYMATTR InstName Iload
SYMATTR Value PULSE(5m -5m 2m 1n 1n 5m 10m)
SYMBOL MAX6037_ADJ 160 144 R0
SYMATTR InstName U1
TEXT -64 328 Left 2 !.tran 10m
