Version 4
SHEET 1 880 680
WIRE 0 -32 -32 -32
WIRE 64 -32 0 -32
WIRE 80 -32 64 -32
WIRE 432 -32 368 -32
WIRE 528 -32 432 -32
WIRE 576 -32 528 -32
WIRE 624 -32 576 -32
WIRE -32 -16 -32 -32
WIRE 432 -16 432 -32
WIRE 528 -16 528 -32
WIRE 624 -16 624 -32
WIRE 64 80 64 -32
WIRE 80 80 64 80
WIRE 432 80 432 64
WIRE 432 80 368 80
WIRE 528 80 528 48
WIRE 624 80 624 64
WIRE -32 96 -32 64
WIRE 432 112 432 80
WIRE 0 192 -16 192
WIRE 80 192 64 192
WIRE 432 224 432 192
WIRE 80 304 64 304
WIRE 224 368 224 352
FLAG -32 96 0
FLAG -16 192 0
FLAG 528 80 0
FLAG 624 80 0
FLAG 0 -32 IN
FLAG 576 -32 OUT
FLAG 224 368 0
FLAG 64 304 0
FLAG 432 224 0
SYMBOL voltage -32 -32 R0
SYMATTR InstName V1
SYMATTR Value 24
SYMBOL cap 64 176 R90
WINDOW 0 0 32 VBottom 2
WINDOW 3 32 32 VTop 2
SYMATTR InstName C1
SYMATTR Value 1µ
SYMBOL cap 512 -16 R0
SYMATTR InstName C2
SYMATTR Value 10µ
SYMBOL res 608 -32 R0
WINDOW 123 36 98 Left 2
SYMATTR Value2 m=2
SYMATTR InstName R5
SYMATTR Value 16.7
SYMBOL res 416 -32 R0
SYMATTR InstName R1
SYMATTR Value 133K
SYMBOL res 416 96 R0
SYMATTR InstName R2
SYMATTR Value 75K
SYMBOL MAXM15064 224 128 R0
SYMATTR InstName U1
TEXT 144 400 Left 2 !.tran 8m startup
