Version 4
SHEET 1 880 680
WIRE 0 -32 -32 -32
WIRE 64 -32 0 -32
WIRE 80 -32 64 -32
WIRE 384 -32 368 -32
WIRE 448 -32 384 -32
WIRE 496 -32 448 -32
WIRE 544 -32 496 -32
WIRE -32 -16 -32 -32
WIRE 448 -16 448 -32
WIRE 544 -16 544 -32
WIRE 64 80 64 -32
WIRE 80 80 64 80
WIRE 384 80 384 -32
WIRE 384 80 368 80
WIRE 448 80 448 48
WIRE 544 80 544 64
WIRE -32 96 -32 64
WIRE 0 192 -16 192
WIRE 80 192 64 192
WIRE 80 304 64 304
WIRE 224 368 224 352
FLAG -32 96 0
FLAG -16 192 0
FLAG 448 80 0
FLAG 544 80 0
FLAG 0 -32 IN
FLAG 496 -32 OUT
FLAG 224 368 0
FLAG 64 304 0
SYMBOL voltage -32 -32 R0
SYMATTR InstName V1
SYMATTR Value 24
SYMBOL cap 64 176 R90
WINDOW 0 0 32 VBottom 2
WINDOW 3 32 32 VTop 2
SYMATTR InstName C1
SYMATTR Value 1µ
SYMBOL cap 432 -16 R0
SYMATTR InstName C2
SYMATTR Value 10µ
SYMBOL res 528 -32 R0
SYMATTR InstName R5
SYMATTR Value 11
SYMBOL MAXM15062 224 128 R0
SYMATTR InstName U2
TEXT 144 400 Left 2 !.tran 8m startup
