Version 4
SHEET 1 1112 680
WIRE -48 -32 -64 -32
WIRE 48 -32 -48 -32
WIRE 176 -32 48 -32
WIRE 544 -32 464 -32
WIRE 640 -32 544 -32
WIRE 736 -32 640 -32
WIRE 768 -32 736 -32
WIRE 544 -16 544 -32
WIRE 768 -16 768 -32
WIRE 640 0 640 -32
WIRE -64 16 -64 -32
WIRE 48 32 48 -32
WIRE 544 80 544 48
WIRE 544 80 464 80
WIRE 768 80 768 64
WIRE 544 96 544 80
WIRE -64 128 -64 96
WIRE 640 160 640 80
WIRE 640 160 464 160
WIRE 48 176 48 112
WIRE 176 176 48 176
WIRE 640 176 640 160
WIRE 48 192 48 176
WIRE 640 272 640 256
WIRE 48 288 48 272
WIRE 176 336 96 336
WIRE 96 352 96 336
WIRE 96 432 96 416
FLAG -64 128 0
FLAG 96 432 0
FLAG 544 96 0
FLAG 768 80 0
FLAG 48 288 0
FLAG -48 -32 vIN
FLAG 736 -32 vOUT
FLAG 640 272 0
SYMBOL MAXM15067 320 144 R0
SYMATTR InstName U1
SYMBOL voltage -64 0 R0
WINDOW 123 0 0 Left 0
WINDOW 39 0 0 Left 0
SYMATTR InstName V1
SYMATTR Value 24
SYMBOL cap 80 352 R0
SYMATTR InstName C1
SYMATTR Value 1µ
SYMBOL cap 528 -16 R0
SYMATTR InstName C2
SYMATTR Value 10µ
SYMBOL res 32 16 R0
WINDOW 3 28 86 Left 2
SYMATTR InstName R1
SYMATTR Value 2.21Meg
SYMBOL res 32 176 R0
SYMATTR InstName R2
SYMATTR Value 825k
SYMBOL res 752 -32 R0
SYMATTR InstName Rload
SYMATTR Value 8.33
SYMBOL res 624 -16 R0
SYMATTR InstName R3
SYMATTR Value 133k
SYMBOL res 624 160 R0
SYMATTR InstName R4
SYMATTR Value 75k
TEXT 464 400 Left 2 !.tran 5m startup
