Version 4
SHEET 1 1512 2100
WIRE 272 176 368 176
WIRE 368 176 368 192
WIRE 272 128 512 128
WIRE 512 128 512 192
WIRE 368 272 368 304
WIRE 512 272 512 304
WIRE 80 160 208 160
WIRE 0 160 -208 160
WIRE 208 224 112 224
WIRE 208 256 176 256
WIRE 176 256 176 336
WIRE 112 224 112 304
WIRE 80 304 112 304
WIRE 0 304 -80 304
WIRE -80 304 -80 352
WIRE -80 432 -80 464
WIRE -208 160 -208 192
WIRE -208 272 -208 304
WIRE 1168 160 1264 160
WIRE 1264 160 1264 176
WIRE 1168 112 1408 112
WIRE 1408 112 1408 176
WIRE 1264 256 1264 288
WIRE 1408 256 1408 288
WIRE 976 144 1104 144
WIRE 896 144 688 144
WIRE 1104 208 1008 208
WIRE 1104 240 1072 240
WIRE 1072 240 1072 320
WIRE 1008 208 1008 288
WIRE 976 288 1008 288
WIRE 896 288 816 288
WIRE 256 624 352 624
WIRE 352 624 352 640
WIRE 256 576 496 576
WIRE 496 576 496 640
WIRE 352 720 352 752
WIRE 496 720 496 752
WIRE 64 608 192 608
WIRE -16 608 -224 608
WIRE 192 672 96 672
WIRE 192 704 160 704
WIRE 160 704 160 784
WIRE 96 672 96 752
WIRE 64 752 96 752
WIRE -16 752 -96 752
WIRE 1184 624 1280 624
WIRE 1280 624 1280 640
WIRE 1184 576 1424 576
WIRE 1424 576 1424 640
WIRE 1280 720 1280 752
WIRE 1424 720 1424 752
WIRE 992 608 1120 608
WIRE 912 608 704 608
WIRE 1120 672 1024 672
WIRE 1120 704 1088 704
WIRE 1088 704 1088 784
WIRE 1024 672 1024 752
WIRE 992 752 1024 752
WIRE 912 752 832 752
WIRE 816 288 816 336
WIRE 816 416 816 448
WIRE -96 752 -96 800
WIRE -96 880 -96 912
WIRE 832 752 832 800
WIRE 832 880 832 912
WIRE 864 -304 992 -304
WIRE 784 -304 576 -304
WIRE 992 -240 896 -240
WIRE 992 -208 960 -208
WIRE 960 -208 960 -128
WIRE 896 -240 896 -160
WIRE 864 -160 896 -160
WIRE 784 -160 704 -160
WIRE 704 -160 704 -112
WIRE 704 -32 704 0
WIRE 864 -384 992 -384
WIRE 784 -384 576 -384
WIRE 1056 -288 1152 -288
WIRE 1152 -288 1152 -272
WIRE 1056 -336 1248 -336
WIRE 1248 -336 1248 -272
WIRE 1152 -192 1152 -160
WIRE 1248 -192 1248 -160
WIRE 1344 -368 1344 -272
WIRE 1440 -416 1440 -272
WIRE 1344 -192 1344 -160
WIRE 1440 -192 1440 -160
WIRE 1344 -368 1056 -368
WIRE 1056 -416 1440 -416
WIRE 256 1136 352 1136
WIRE 352 1136 352 1152
WIRE 352 1232 352 1264
WIRE 64 1120 192 1120
WIRE -16 1120 -224 1120
WIRE 192 1184 96 1184
WIRE 192 1216 160 1216
WIRE 160 1216 160 1296
WIRE 96 1184 96 1264
WIRE 64 1264 96 1264
WIRE -16 1264 -96 1264
WIRE 1168 1120 1264 1120
WIRE 1264 1120 1264 1136
WIRE 1264 1216 1264 1248
WIRE 976 1104 1104 1104
WIRE 896 1104 688 1104
WIRE 1104 1168 1008 1168
WIRE 1104 1200 1072 1200
WIRE 1072 1200 1072 1280
WIRE 1008 1168 1008 1248
WIRE 976 1248 1008 1248
WIRE 896 1248 816 1248
WIRE -96 1264 -96 1312
WIRE -96 1392 -96 1424
WIRE 816 1248 816 1296
WIRE 816 1376 816 1408
FLAG 368 304 0
FLAG 512 304 0
FLAG 176 336 0
FLAG -80 464 0
FLAG -208 304 0
FLAG -208 160 SIGIN
FLAG 368 176 OUT1_1
FLAG 512 128 OUT1_2
FLAG -80 304 CTRL1
FLAG 1264 288 0
FLAG 1408 288 0
FLAG 1072 320 0
FLAG 688 144 SIGIN
FLAG 1264 160 OUT2_1
FLAG 1408 112 OUT2_2
FLAG 352 752 0
FLAG 496 752 0
FLAG 160 784 0
FLAG -224 608 SIGIN
FLAG 352 624 OUT3_1
FLAG 496 576 OUT3_2
FLAG 1280 752 0
FLAG 1424 752 0
FLAG 1088 784 0
FLAG 704 608 SIGIN
FLAG 1280 624 OUT4_1
FLAG 1424 576 OUT4_2
FLAG 816 448 0
FLAG 816 288 CTRL2
FLAG -96 912 0
FLAG -96 752 CTRL3
FLAG 832 912 0
FLAG 832 752 CTRL4
FLAG 960 -128 0
FLAG 576 -304 SIGIN
FLAG 704 0 0
FLAG 704 -160 CTRL5
FLAG 576 -384 SIGIN
FLAG 1152 -160 0
FLAG 1248 -160 0
FLAG 1152 -288 OUT5_1
FLAG 1248 -336 OUT5_2
FLAG 1344 -160 0
FLAG 1440 -160 0
FLAG 1344 -368 OUT6_1
FLAG 1440 -416 OUT6_2
FLAG 352 1264 0
FLAG 160 1296 0
FLAG -224 1120 SIGIN
FLAG 352 1136 OUT7_1
FLAG 1264 1248 0
FLAG 1072 1280 0
FLAG 688 1104 SIGIN
FLAG 1264 1120 OUT8_1
FLAG -96 1424 0
FLAG -96 1264 CTRL7
FLAG 816 1408 0
FLAG 816 1248 CTRL8
SYMBOL res 352 176 R0
SYMATTR InstName R1
SYMATTR Value 50
SYMBOL res 496 176 R0
SYMATTR InstName R2
SYMATTR Value 50
SYMBOL res -16 176 R270
WINDOW 0 32 56 VTop 0
WINDOW 3 0 56 VBottom 0
SYMATTR InstName R3
SYMATTR Value 50
SYMBOL res -16 320 R270
WINDOW 0 32 56 VTop 0
WINDOW 3 0 56 VBottom 0
SYMATTR InstName R4
SYMATTR Value 1
SYMBOL voltage -80 336 R0
WINDOW 123 0 0 Left 0
WINDOW 39 0 0 Left 0
SYMATTR InstName V1
SYMATTR Value PULSE(0 5 0 0.1u 0.1u 50m 100m)
SYMBOL voltage -208 176 R0
SYMATTR InstName V2
SYMATTR Value 2
SYMBOL D:\\Data\\Ltc_spice\\Relay\\rly_spdt0 240 176 R0
SYMATTR InstName U1
SYMBOL res 1248 160 R0
SYMATTR InstName R5
SYMATTR Value 50
SYMBOL res 1392 160 R0
SYMATTR InstName R6
SYMATTR Value 50
SYMBOL res 880 160 R270
WINDOW 0 32 56 VTop 0
WINDOW 3 0 56 VBottom 0
SYMATTR InstName R7
SYMATTR Value 50
SYMBOL res 880 304 R270
WINDOW 0 32 56 VTop 0
WINDOW 3 0 56 VBottom 0
SYMATTR InstName R8
SYMATTR Value 1
SYMBOL res 336 624 R0
SYMATTR InstName R9
SYMATTR Value 50
SYMBOL res 480 624 R0
SYMATTR InstName R10
SYMATTR Value 50
SYMBOL res -32 624 R270
WINDOW 0 32 56 VTop 0
WINDOW 3 0 56 VBottom 0
SYMATTR InstName R11
SYMATTR Value 50
SYMBOL res -32 768 R270
WINDOW 0 32 56 VTop 0
WINDOW 3 0 56 VBottom 0
SYMATTR InstName R12
SYMATTR Value 1
SYMBOL res 1264 624 R0
SYMATTR InstName R13
SYMATTR Value 50
SYMBOL res 1408 624 R0
SYMATTR InstName R14
SYMATTR Value 50
SYMBOL res 896 624 R270
WINDOW 0 32 56 VTop 0
WINDOW 3 0 56 VBottom 0
SYMATTR InstName R15
SYMATTR Value 50
SYMBOL res 896 768 R270
WINDOW 0 32 56 VTop 0
WINDOW 3 0 56 VBottom 0
SYMATTR InstName R16
SYMATTR Value 1
SYMBOL D:\\Data\\Ltc_spice\\Relay\\rly_spdt 1136 160 R0
SYMATTR SpiceModel RLY_REED1
SYMATTR InstName U2
SYMBOL D:\\Data\\Ltc_spice\\Relay\\rly_spdt 224 624 R0
SYMATTR SpiceModel RLY_SIG1
SYMATTR InstName U3
SYMBOL D:\\Data\\Ltc_spice\\Relay\\rly_spdt 1152 624 R0
SYMATTR SpiceModel RLY_POW1
SYMATTR InstName U4
SYMBOL voltage 816 320 R0
WINDOW 123 0 0 Left 0
WINDOW 39 0 0 Left 0
SYMATTR InstName V3
SYMATTR Value PULSE(0 5 0 0.1u 0.1u 50m 100m)
SYMBOL voltage -96 784 R0
WINDOW 123 0 0 Left 0
WINDOW 39 0 0 Left 0
SYMATTR InstName V4
SYMATTR Value PULSE(0 5 0 0.1u 0.1u 50m 100m)
SYMBOL voltage 832 784 R0
WINDOW 123 0 0 Left 0
WINDOW 39 0 0 Left 0
SYMATTR InstName V5
SYMATTR Value PULSE(0 12 0 0.1u 0.1u 50m 100m)
SYMBOL D:\\Data\\Ltc_spice\\Relay\\rly_dpdt 1024 -288 R0
SYMATTR SpiceModel RLY_2POW1
SYMATTR InstName U5
SYMBOL res 768 -288 R270
WINDOW 0 32 56 VTop 0
WINDOW 3 0 56 VBottom 0
SYMATTR InstName R17
SYMATTR Value 50
SYMBOL res 768 -144 R270
WINDOW 0 32 56 VTop 0
WINDOW 3 0 56 VBottom 0
SYMATTR InstName R18
SYMATTR Value 1
SYMBOL voltage 704 -128 R0
WINDOW 123 0 0 Left 0
WINDOW 39 0 0 Left 0
SYMATTR InstName V6
SYMATTR Value PULSE(0 12 0 0.1u 0.1u 50m 100m)
SYMBOL res 768 -368 R270
WINDOW 0 32 56 VTop 0
WINDOW 3 0 56 VBottom 0
SYMATTR InstName R19
SYMATTR Value 50
SYMBOL res 1136 -288 R0
SYMATTR InstName R20
SYMATTR Value 50
SYMBOL res 1232 -288 R0
SYMATTR InstName R21
SYMATTR Value 50
SYMBOL res 1328 -288 R0
SYMATTR InstName R22
SYMATTR Value 50
SYMBOL res 1424 -288 R0
SYMATTR InstName R23
SYMATTR Value 50
SYMBOL res 336 1136 R0
SYMATTR InstName R24
SYMATTR Value 50
SYMBOL res -32 1136 R270
WINDOW 0 32 56 VTop 0
WINDOW 3 0 56 VBottom 0
SYMATTR InstName R26
SYMATTR Value 50
SYMBOL res -32 1280 R270
WINDOW 0 32 56 VTop 0
WINDOW 3 0 56 VBottom 0
SYMATTR InstName R27
SYMATTR Value 1
SYMBOL res 1248 1120 R0
SYMATTR InstName R28
SYMATTR Value 50
SYMBOL res 880 1120 R270
WINDOW 0 32 56 VTop 0
WINDOW 3 0 56 VBottom 0
SYMATTR InstName R30
SYMATTR Value 50
SYMBOL res 880 1264 R270
WINDOW 0 32 56 VTop 0
WINDOW 3 0 56 VBottom 0
SYMATTR InstName R31
SYMATTR Value 1
SYMBOL voltage -96 1296 R0
WINDOW 123 0 0 Left 0
WINDOW 39 0 0 Left 0
SYMATTR InstName V7
SYMATTR Value PULSE(0 5 0 0.1u 0.1u 50m 100m)
SYMBOL voltage 816 1280 R0
WINDOW 123 0 0 Left 0
WINDOW 39 0 0 Left 0
SYMATTR InstName V8
SYMATTR Value PULSE(0 5 0 0.1u 0.1u 50m 100m)
SYMBOL D:\\Data\\Ltc_spice\\Relay\\rly_spst-no 224 1136 R0
SYMATTR SpiceModel RLY_SIG1NO
SYMATTR InstName U7
SYMBOL D:\\Data\\Ltc_spice\\Relay\\rly_spst-nc 1136 1120 R0
SYMATTR SpiceModel RLY_SIG1NC
SYMATTR InstName U8
TEXT -224 -232 Left 0 !.include relay.lib
TEXT -224 -192 Left 0 !.tran 0 100m 0 10u
TEXT 64 -328 Left 0 ;Parameters\n-----------------\nNominal Voltage  VNOM=5  \nCoil Resistance   RCOIL=150\nContact Resistance  RON=0.1 \nOff Isolation  ROFF=1G\nSwitiching Time  TON=5m \nMinimum Coil Voltage On-Ratio  VON=0.7 \nMaximum Coil Voltage Off-Ratio  VOFF=0.3 \nCoil Inductance  LCOIL=0.15 \nCoil Capacitance CCOIL=1f \nContact Off Capacitance  COFF=1f \nContact Coupling Capacitance  CCOUP=1f\nContact Series Inductance  Lser=1p
TEXT -96 -440 Left 0 ;A Relay Model              Helmut Sennewald     01/25/04  V1.0\n \nSpecial feature: Break before make action included.
TEXT 48 88 Left 0 ;REED Relay
TEXT 960 64 Left 0 ;Signal Relay
TEXT 840 -456 Left 0 ;Power Relay
TEXT 40 536 Left 0 ;Signal Relay
TEXT 968 536 Left 0 ;Power Relay
TEXT 40 1048 Left 0 ;Signal Relay
TEXT 952 1032 Left 0 ;Signal Relay
