Version 4
SHEET 1 1640 936
WIRE 496 -128 256 -128
WIRE 800 -128 496 -128
WIRE -384 -96 -512 -96
WIRE -224 -96 -304 -96
WIRE -144 -96 -224 -96
WIRE 16 -96 -144 -96
WIRE 96 -96 16 -96
WIRE 576 -96 336 -96
WIRE 768 -96 576 -96
WIRE 1040 -96 1024 -96
WIRE 1136 -96 1120 -96
WIRE 1216 -96 1136 -96
WIRE 1264 -96 1216 -96
WIRE -144 -80 -144 -96
WIRE 16 -80 16 -96
WIRE 256 -80 256 -128
WIRE 336 -80 336 -96
WIRE 496 -80 496 -128
WIRE 576 -80 576 -96
WIRE 1136 -48 1136 -96
WIRE -224 -32 -224 -96
WIRE -208 -32 -224 -32
WIRE 96 -32 96 -96
WIRE 96 -32 80 -32
WIRE 192 -32 176 -32
WIRE 416 -32 400 -32
WIRE 432 -32 416 -32
WIRE 656 -32 640 -32
WIRE 800 -32 800 -128
WIRE 1024 -32 800 -32
WIRE 1088 -32 1024 -32
WIRE 768 0 768 -96
WIRE 1056 0 768 0
WIRE 336 16 256 16
WIRE 576 16 496 16
WIRE 1088 16 1056 0
WIRE -144 32 -144 16
WIRE 416 32 416 -32
WIRE 416 32 -144 32
WIRE 896 48 864 48
WIRE 928 48 896 48
WIRE 1136 48 1136 32
WIRE 1136 48 1120 48
WIRE 1152 48 1136 48
WIRE 1216 48 1216 -96
WIRE 16 64 16 16
WIRE 176 64 176 -32
WIRE 176 64 16 64
WIRE 656 64 656 -32
WIRE 656 64 176 64
WIRE 768 64 768 0
WIRE 864 64 864 48
WIRE 928 64 928 48
WIRE 1024 64 1024 -32
WIRE -144 80 -144 32
WIRE 16 80 16 64
WIRE 336 80 336 16
WIRE 496 80 496 16
WIRE 768 160 768 144
WIRE 816 160 768 160
WIRE 864 160 864 144
WIRE 864 160 816 160
WIRE 928 160 928 144
WIRE 976 160 928 160
WIRE 1024 160 1024 144
WIRE 1024 160 976 160
WIRE -144 176 -144 160
WIRE 16 176 16 160
WIRE 336 176 336 160
WIRE 496 176 496 160
WIRE 816 176 816 160
WIRE 976 176 976 160
WIRE -208 224 -224 224
WIRE 96 224 80 224
WIRE 272 224 256 224
WIRE 576 224 560 224
WIRE 752 224 736 224
WIRE 1056 224 1040 224
WIRE -224 272 -224 224
WIRE 96 272 96 224
WIRE 256 272 256 224
WIRE 576 272 576 224
WIRE 736 272 736 224
WIRE 1056 272 1056 224
WIRE -144 288 -144 272
WIRE 16 288 16 272
WIRE 336 288 336 272
WIRE 496 288 496 272
WIRE 816 288 816 272
WIRE 976 288 976 272
WIRE -416 304 -464 304
WIRE -384 304 -416 304
WIRE -464 336 -464 304
WIRE -384 336 -384 304
WIRE -256 384 -272 384
WIRE -224 384 -224 352
WIRE -224 384 -256 384
WIRE -144 384 -144 368
WIRE -96 384 -144 384
WIRE 16 384 16 368
WIRE 16 384 -16 384
WIRE 96 384 96 352
WIRE 128 384 96 384
WIRE 144 384 128 384
WIRE 224 384 208 384
WIRE 256 384 256 352
WIRE 256 384 224 384
WIRE 336 384 336 368
WIRE 384 384 336 384
WIRE 496 384 496 368
WIRE 496 384 464 384
WIRE 576 384 576 352
WIRE 608 384 576 384
WIRE 624 384 608 384
WIRE 704 384 688 384
WIRE 736 384 736 352
WIRE 736 384 704 384
WIRE 816 384 816 368
WIRE 864 384 816 384
WIRE 976 384 976 368
WIRE 976 384 944 384
WIRE 1056 384 1056 352
WIRE 1088 384 1056 384
WIRE 1104 384 1088 384
WIRE -144 400 -144 384
WIRE 16 400 16 384
WIRE 336 400 336 384
WIRE 496 400 496 384
WIRE 816 400 816 384
WIRE 976 400 976 384
WIRE -384 448 -384 416
WIRE -288 448 -384 448
WIRE -208 448 -288 448
WIRE 80 448 -208 448
WIRE 272 448 80 448
WIRE 560 448 272 448
WIRE 752 448 560 448
WIRE 1040 448 752 448
WIRE -384 464 -384 448
WIRE -288 512 -288 448
WIRE -288 512 -320 512
WIRE -144 512 -144 496
WIRE 16 512 16 496
WIRE 336 512 336 496
WIRE 496 512 496 496
WIRE 816 512 816 496
WIRE 976 512 976 496
WIRE -384 560 -512 560
WIRE -384 592 -384 560
WIRE -144 608 -144 592
WIRE -64 608 -144 608
WIRE 16 608 16 592
WIRE 16 608 -64 608
WIRE 336 608 336 592
WIRE 416 608 336 608
WIRE 496 608 496 592
WIRE 496 608 416 608
WIRE 816 608 816 592
WIRE 896 608 816 608
WIRE 976 608 976 592
WIRE 976 608 896 608
WIRE -64 624 -64 608
WIRE 416 624 416 608
WIRE 896 624 896 608
WIRE -464 720 -464 416
WIRE -464 720 -512 720
WIRE -384 720 -384 672
WIRE -384 720 -464 720
WIRE -64 720 -64 704
WIRE -64 720 -384 720
WIRE 416 720 416 704
WIRE 416 720 -64 720
WIRE 896 720 896 704
WIRE 896 720 416 720
WIRE 624 752 624 384
WIRE 1216 752 1216 48
WIRE 1216 752 624 752
WIRE -224 832 -240 832
WIRE -128 832 -144 832
WIRE 272 832 256 832
WIRE 368 832 352 832
WIRE 384 832 368 832
WIRE 480 832 464 832
WIRE 976 832 960 832
WIRE 1072 832 1056 832
WIRE 368 864 368 832
FLAG -512 -96 V+
IOPIN -512 -96 In
FLAG -512 720 V-
IOPIN -512 720 In
FLAG -256 384 X1
FLAG 128 384 X2
FLAG 224 384 Y1
FLAG 608 384 Y2
FLAG 704 384 Z1
FLAG 1088 384 Z2
FLAG 1264 -96 Out
IOPIN 1264 -96 Out
FLAG 208 384 0
FLAG 688 384 0
FLAG 144 384 0
FLAG 368 864 0
FLAG 480 832 V+
IOPIN 480 832 In
FLAG 256 832 V-
IOPIN 256 832 In
FLAG -240 832 X1
FLAG 1072 832 Z2
FLAG -128 832 0
FLAG 960 832 0
FLAG -512 560 SF
IOPIN -512 560 In
FLAG 1120 48 0
FLAG 896 48 V+
FLAG 1024 -96 0
FLAG -416 304 Zener
SYMBOL npn -320 464 M0
SYMATTR InstName Q1
SYMATTR Value NPN 2
SYMBOL res -400 576 R0
SYMATTR InstName R1
SYMATTR Value 8k9
SYMBOL res -160 496 R0
SYMATTR InstName R5
SYMATTR Value 10k6
SYMBOL npn -208 400 R0
SYMATTR InstName Q2
SYMBOL npn 80 400 M0
SYMATTR InstName Q3
SYMBOL res 0 496 R0
SYMATTR InstName R6
SYMATTR Value 10k6
SYMBOL res 0 368 R90
WINDOW 0 0 56 VBottom 0
WINDOW 3 32 56 VTop 0
SYMATTR InstName R9
SYMATTR Value 77k9
SYMBOL res -160 272 R0
SYMATTR InstName R8
SYMATTR Value 8k
SYMBOL res 0 272 R0
SYMATTR InstName R10
SYMATTR Value 8k
SYMBOL npn -208 176 R0
SYMATTR InstName Q4
SYMBOL npn 80 176 M0
SYMATTR InstName Q5
SYMBOL res 320 496 R0
SYMATTR InstName R15
SYMATTR Value 10k6
SYMBOL npn 272 400 R0
SYMATTR InstName Q8
SYMBOL npn 560 400 M0
SYMATTR InstName Q9
SYMBOL res 480 496 R0
SYMATTR InstName R16
SYMATTR Value 10k6
SYMBOL res 480 368 R90
WINDOW 0 0 56 VBottom 0
WINDOW 3 32 56 VTop 0
SYMATTR InstName R19
SYMATTR Value 77k9
SYMBOL res 320 272 R0
SYMATTR InstName R18
SYMATTR Value 8k
SYMBOL res 480 272 R0
SYMATTR InstName R20
SYMATTR Value 8k
SYMBOL npn 272 176 R0
SYMATTR InstName Q10
SYMBOL npn 560 176 M0
SYMATTR InstName Q11
SYMBOL res 800 496 R0
SYMATTR InstName R25
SYMATTR Value 10k6
SYMBOL npn 752 400 R0
SYMATTR InstName Q16
SYMBOL npn 1040 400 M0
SYMATTR InstName Q17
SYMBOL res 960 496 R0
SYMATTR InstName R26
SYMATTR Value 10k6
SYMBOL res 960 368 R90
WINDOW 0 0 56 VBottom 0
WINDOW 3 32 56 VTop 0
SYMATTR InstName R29
SYMATTR Value 77k9
SYMBOL res 800 272 R0
SYMATTR InstName R28
SYMATTR Value 8k
SYMBOL res 960 272 R0
SYMATTR InstName R30
SYMATTR Value 8k
SYMBOL npn 752 176 R0
SYMATTR InstName Q18
SYMBOL npn 1040 176 M0
SYMATTR InstName Q19
SYMBOL npn -208 -80 R0
SYMATTR InstName Q6
SYMBOL npn 80 -80 M0
SYMATTR InstName Q7
SYMBOL npn 192 -80 R0
SYMATTR InstName Q12
SYMBOL npn 400 -80 M0
SYMATTR InstName Q13
SYMBOL npn 432 -80 R0
SYMATTR InstName Q14
SYMBOL npn 640 -80 M0
SYMATTR InstName Q15
SYMBOL res 880 160 R180
WINDOW 0 36 76 Left 0
WINDOW 3 36 40 Left 0
SYMATTR InstName R33
SYMATTR Value 6k
SYMBOL res 784 160 R180
WINDOW 0 36 76 Left 0
WINDOW 3 36 40 Left 0
SYMATTR InstName R32
SYMATTR Value 2k
SYMBOL res 1008 48 R0
SYMATTR InstName R35
SYMATTR Value 2k
SYMBOL voltage 480 832 R90
WINDOW 0 -32 56 VBottom 0
WINDOW 3 32 56 VTop 0
SYMATTR InstName V+
SYMATTR Value {Vs}
SYMBOL voltage 368 832 R90
WINDOW 0 -32 56 VBottom 0
WINDOW 3 32 56 VTop 0
SYMATTR InstName V-
SYMATTR Value {Vs}
SYMBOL voltage -240 832 M90
WINDOW 0 -32 56 VBottom 0
WINDOW 3 32 56 VTop 0
SYMATTR InstName Vx
SYMATTR Value 10
SYMBOL voltage 1072 832 R90
WINDOW 0 -32 56 VBottom 0
WINDOW 3 32 56 VTop 0
SYMATTR InstName Vz
SYMATTR Value 10
SYMBOL res -400 320 R0
SYMATTR InstName R2
SYMATTR Value 18k7
SYMBOL voltage -464 320 M0
SYMATTR InstName V1
SYMATTR Value 7.7
SYMBOL res 912 48 R0
SYMATTR InstName R34
SYMATTR Value 6k
SYMBOL g2 1136 -64 R0
WINDOW 0 32 32 Left 0
WINDOW 3 25 0 Left 0
SYMATTR InstName G1
SYMATTR Value 100
SYMBOL Misc\\xvaristor 1136 -112 R90
WINDOW 0 0 56 VBottom 0
WINDOW 3 32 56 VTop 0
SYMATTR InstName D1
SYMATTR Value lim
SYMATTR Prefix D
SYMBOL res -288 -112 R90
WINDOW 0 0 56 VBottom 0
WINDOW 3 32 56 VTop 0
SYMATTR InstName R3
SYMATTR Value 8k
SYMBOL cap 1216 32 R90
WINDOW 0 0 32 VBottom 0
WINDOW 3 32 32 VTop 0
WINDOW 39 32 -32 Center 0
SYMATTR InstName C1
SYMATTR Value 100n
SYMATTR SpiceLine Rser=30m Rpar=35
SYMBOL res -80 608 R0
SYMATTR InstName R4
SYMATTR Value 2k7
SYMBOL res 400 608 R0
SYMATTR InstName R14
SYMATTR Value 2k7
SYMBOL res 880 608 R0
SYMATTR InstName R24
SYMATTR Value 2k7
SYMBOL res -240 256 R0
SYMATTR InstName R7
SYMATTR Value 10k
SYMBOL res 80 256 R0
SYMATTR InstName R11
SYMATTR Value 10k
SYMBOL res 240 256 R0
SYMATTR InstName R17
SYMATTR Value 10k
SYMBOL res 560 256 R0
SYMATTR InstName R21
SYMATTR Value 10k
SYMBOL res 720 256 R0
SYMATTR InstName R27
SYMATTR Value 10k
SYMBOL res 1040 256 R0
SYMATTR InstName R31
SYMATTR Value 10k
SYMBOL res -160 64 R0
SYMATTR InstName R12
SYMATTR Value 0k5
SYMBOL res 0 64 R0
SYMATTR InstName R13
SYMATTR Value 0k5
SYMBOL res 320 64 R0
SYMATTR InstName R22
SYMATTR Value 0k5
SYMBOL res 480 64 R0
SYMATTR InstName R23
SYMATTR Value 0k5
TEXT -472 824 Left 0 !.op
TEXT 1216 -128 Left 0 ;Out=10*Z/X
TEXT -256 400 Center 0 ;1
TEXT 128 400 Center 0 ;2
TEXT 224 400 Center 0 ;6
TEXT 608 400 Center 0 ;7
TEXT 704 400 Center 0 ;11
TEXT 1088 400 Center 0 ;10
TEXT 1288 -64 Center 0 ;12
TEXT -544 -64 Center 0 ;14
TEXT -544 752 Center 0 ;8
TEXT -544 592 Center 0 ;4
TEXT -552 176 Left 0 ;Rsf=5k4*SF/(10-SF)
TEXT -552 208 Left 0 ;SF = 10*Rsf/(Rsf+5k4)
TEXT 1080 -160 Center 0 !.model lim d(Vfwd={Vs-2} Vrev={Vs-2})
TEXT -208 -160 Left 0 !.model NPN npn(Is=1f Bf=300 Xtb=1.5 Br=4 Cjc=1p Cje=2p Rb=80 Rc=0.4 Re=0.4 tr=250n)
TEXT 376 -296 Center 0 ;AD543 Simplified Model\n(Divider Configuration)
TEXT 88 832 Center 0 !.param Vs=20
TEXT 752 832 Left 0 ;.step Vz -10 10 1
TEXT 1112 -208 Center 0 ;Output OpAmp
RECTANGLE Normal 536 -232 216 -328
