Version 4
SHEET 1 880 680
WIRE -544 160 -608 160
WIRE -432 160 -464 160
WIRE -432 160 -432 -64
WIRE -400 160 -432 160
WIRE -272 160 -320 160
WIRE -272 208 -272 160
WIRE -272 320 -272 272
WIRE -128 320 -128 256
WIRE -128 448 -128 384
WIRE -64 -64 -432 -64
WIRE -32 256 -128 256
WIRE -32 320 -32 256
WIRE -32 448 -32 400
WIRE 48 160 -272 160
WIRE 48 256 -32 256
WIRE 144 128 144 80
WIRE 144 336 144 288
WIRE 288 -64 0 -64
WIRE 288 208 240 208
WIRE 288 208 288 -64
WIRE 368 208 288 208
WIRE 496 208 448 208
FLAG -32 448 0
FLAG -128 448 0
FLAG 144 80 vcc
IOPIN 144 80 In
FLAG 144 336 vss
IOPIN 144 336 In
FLAG 496 208 out
IOPIN 496 208 Out
FLAG -608 160 in
IOPIN -608 160 In
FLAG -272 320 0
SYMBOL opamp_gain2 144 224 R0
WINDOW 0 51 -71 Left 0
WINDOW 39 39 93 Left 0
SYMATTR InstName X1
SYMATTR SpiceLine gain={gain}
SYMBOL res -48 304 R0
SYMATTR InstName R1
SYMATTR Value 1G
SYMBOL cap -144 320 R0
SYMATTR InstName C1
SYMATTR Value 1f
SYMBOL res 352 224 R270
WINDOW 0 32 56 VTop 0
WINDOW 3 0 56 VBottom 0
SYMATTR InstName R2
SYMATTR Value 10
SYMBOL cap -64 -48 R270
WINDOW 0 32 32 VTop 0
WINDOW 3 0 32 VBottom 0
SYMATTR InstName C2
SYMATTR Value 6.8n
SYMBOL res -416 176 R270
WINDOW 0 32 56 VTop 0
WINDOW 3 0 56 VBottom 0
SYMATTR InstName R3
SYMATTR Value 14k
SYMBOL res -560 176 R270
WINDOW 0 32 56 VTop 0
WINDOW 3 0 56 VBottom 0
SYMATTR InstName R4
SYMATTR Value 26.7k
SYMBOL cap -288 208 R0
SYMATTR InstName C3
SYMATTR Value 10n
TEXT -400 -320 Left 0 !.param gain=2
TEXT -192 -320 Left 0 ;This ".param" line is necessary, \notherwise the parameter "gain"\nif coming from the higher level\nwill not be passed down the hierarchy.\nThe second reason is for the case\nthat no parameter is given from the \nhigher level schematic.
TEXT -336 24 Left 0 ;Sallen-Key Lowpass (Butterworth)\nDesigned for a gain of 2
