*V1.05
*Steward Inc. Copyright 2006 pspice part library, William Feaster V1.04
*$
.subckt HZ1206C202R-10 A B
R1	A   	E   2926.4416
L1	A	F   5.7504e-006
C1	A	C   1.8702e-012
ER	H	A	TABLE { abs(V(I,A)) }
+ ((0,1)(0.05,0.95365)(0.1,0.90267)(0.2,0.78343)(0.3,0.70066)(0.4,0.64607))
EL	G	A	TABLE { abs(V(I,A)) }
+ ((0,1)(0.05,0.75871)(0.1,0.57136)(0.2,0.38784)(0.3,0.28205)(0.4,0.21596))
EC	D	A	TABLE { abs(V(I,A)) }
+ ((0,1)(0.05,1.0206)(0.1,1.0592)(0.2,1.0392)(0.3,1.0405)(0.4,1.0383))
R2	G	A	1G
R3	D	A	1G
F1	A	F	V1	1
F2	B	A	V2	1
V1	K	A	0V
V2	A	L	0V
E1	E	K 	poly(2) (F,A) (G,A) 0 0 0 0 1
E2	C	L 	poly(2) (D,A) (B,A) 0 0 0 0 1
EM	B	J	VALUE { V(H,A) * V(E,A) }
G1	A	E	I	A	1
H1	I	A	VH	1
VH	J	A	0V
.ends HZ1206C202R-10
*$
.subckt HZ1206E601R-10 A B
R1	A   	E   588.2739
L1	A	F   1.6128e-006
C1	A	C   2.0672e-012
ER	H	A	TABLE { abs(V(I,A)) }
+ ((0,1)(0.1,0.92558)(0.2,0.86314)(0.3,0.80668)(0.4,0.76603)(0.5,0.73531))
EL	G	A	TABLE { abs(V(I,A)) }
+ ((0,1)(0.1,0.75846)(0.2,0.45435)(0.3,0.32263)(0.4,0.23323)(0.5,0.1795))
EC	D	A	TABLE { abs(V(I,A)) }
+ ((0,1)(0.1,1.0316)(0.2,1.0595)(0.3,1.0812)(0.4,1.1042)(0.5,1.1187))
R2	G	A	1G
R3	D	A	1G
F1	A	F	V1	1
F2	B	A	V2	1
V1	K	A	0V
V2	A	L	0V
E1	E	K 	poly(2) (F,A) (G,A) 0 0 0 0 1
E2	C	L 	poly(2) (D,A) (B,A) 0 0 0 0 1
EM	B	J	VALUE { V(H,A) * V(E,A) }
G1	A	E	I	A	1
H1	I	A	VH	1
VH	J	A	0V
.ends HZ1206E601R-10
*$
.subckt MI1206K601R-10 A B
R1	A   	E   700.2914
L1	A	F   1.8121e-006
C1	A	C   1.9831e-012
ER	H	A	TABLE { abs(V(I,A)) }
+ ((0,1)(0.25,0.78228)(0.5,0.68575)(1,0.66419)(1.5,0.66768))
EL	G	A	TABLE { abs(V(I,A)) }
+ ((0,1)(0.25,0.35141)(0.5,0.17706)(1,0.079146)(1.5,0.052529))
EC	D	A	TABLE { abs(V(I,A)) }
+ ((0,1)(0.25,1.0293)(0.5,1.0432)(1,1.1089)(1.5,1.1532))
R2	G	A	1G
R3	D	A	1G
F1	A	F	V1	1
F2	B	A	V2	1
V1	K	A	0V
V2	A	L	0V
E1	E	K 	poly(2) (F,A) (G,A) 0 0 0 0 1
E2	C	L 	poly(2) (D,A) (B,A) 0 0 0 0 1
EM	B	J	VALUE { V(H,A) * V(E,A) }
G1	A	E	I	A	1
H1	I	A	VH	1
VH	J	A	0V
.ends MI1206K601R-10
*$
.subckt HR2220V801R-10 A B
R1	A   	E   633.4065
L1	A	F   1.4556e-006
C1	A	C   2.1559e-012
ER	H	A	TABLE { abs(V(I,A)) }
+ ((0,1)(1,0.8803)(2,0.77991)(3,0.72179)(4,0.67395)(5,0.62671))
EL	G	A	TABLE { abs(V(I,A)) }
+ ((0,1)(1,0.46767)(2,0.24826)(3,0.15345)(4,0.10645)(5,0.076726))
EC	D	A	TABLE { abs(V(I,A)) }
+ ((0,1)(1,1.0273)(2,1.0585)(3,1.0933)(4,1.1193)(5,1.1464))
R2	G	A	1G
R3	D	A	1G
F1	A	F	V1	1
F2	B	A	V2	1
V1	K	A	0V
V2	A	L	0V
E1	E	K 	poly(2) (F,A) (G,A) 0 0 0 0 1
E2	C	L 	poly(2) (D,A) (B,A) 0 0 0 0 1
EM	B	J	VALUE { V(H,A) * V(E,A) }
G1	A	E	I	A	1
H1	I	A	VH	1
VH	J	A	0V
.ends HR2220V801R-10
*$
.subckt HZ1206D102R-10 A B
R1	A   	E   840.5162
L1	A	F   1.4939e-006
C1	A	C   1.4886e-012
ER	H	A	TABLE { abs(V(I,A)) }
+ ((0,1)(0.1,0.97089)(0.2,0.96275)(0.3,0.9251)(0.4,0.91351)(0.5,0.91183))
EL	G	A	TABLE { abs(V(I,A)) }
+ ((0,1)(0.1,0.80195)(0.2,0.62128)(0.3,0.52325)(0.4,0.42025)(0.5,0.34794))
EC	D	A	TABLE { abs(V(I,A)) }
+ ((0,1)(0.1,1.0186)(0.2,1.0522)(0.3,1.0548)(0.4,1.0859)(0.5,1.1113))
R2	G	A	1G
R3	D	A	1G
F1	A	F	V1	1
F2	B	A	V2	1
V1	K	A	0V
V2	A	L	0V
E1	E	K 	poly(2) (F,A) (G,A) 0 0 0 0 1
E2	C	L 	poly(2) (D,A) (B,A) 0 0 0 0 1
EM	B	J	VALUE { V(H,A) * V(E,A) }
G1	A	E	I	A	1
H1	I	A	VH	1
VH	J	A	0V
.ends HZ1206D102R-10
*$
.subckt HI2220P601R-10 A B
R1	A   	E   649.3128
L1	A	F   1.4089e-006
C1	A	C   2.0573e-012
ER	H	A	TABLE { abs(V(I,A)) }
+ ((0,1)(0.5,0.94717)(1,0.88716)(2,0.76724)(3,0.68173)(4,0.62578)
+(5,0.5914))
EL	G	A	TABLE { abs(V(I,A)) }
+ ((0,1)(0.5,0.63784)(1,0.43607)(2,0.23436)(3,0.14386)(4,0.095906)
+(5,0.068256))
EC	D	A	TABLE { abs(V(I,A)) }
+ ((0,1)(0.5,1.0184)(1,1.0321)(2,1.0367)(3,1.0399)(4,1.0602)
+(5,1.0921))
R2	G	A	1G
R3	D	A	1G
F1	A	F	V1	1
F2	B	A	V2	1
V1	K	A	0V
V2	A	L	0V
E1	E	K 	poly(2) (F,A) (G,A) 0 0 0 0 1
E2	C	L 	poly(2) (D,A) (B,A) 0 0 0 0 1
EM	B	J	VALUE { V(H,A) * V(E,A) }
G1	A	E	I	A	1
H1	I	A	VH	1
VH	J	A	0V
.ends HI2220P601R-10
*$
.subckt HI2220P701R-10 A B
R1	A   	E   659.9294
L1	A	F   1.3248e-006
C1	A	C   2.0967e-012
ER	H	A	TABLE { abs(V(I,A)) }
+ ((0,1)(0.5,0.96323)(1,0.92158)(2,0.81611)(3,0.72677)(4,0.66317))
EL	G	A	TABLE { abs(V(I,A)) }
+ ((0,1)(0.5,0.69931)(1,0.50085)(2,0.2917)(3,0.18727)(4,0.12832))
EC	D	A	TABLE { abs(V(I,A)) }
+ ((0,1)(0.5,1.0159)(1,1.0367)(2,1.0375)(3,1.0255)(4,1.0254))
R2	G	A	1G
R3	D	A	1G
F1	A	F	V1	1
F2	B	A	V2	1
V1	K	A	0V
V2	A	L	0V
E1	E	K 	poly(2) (F,A) (G,A) 0 0 0 0 1
E2	C	L 	poly(2) (D,A) (B,A) 0 0 0 0 1
EM	B	J	VALUE { V(H,A) * V(E,A) }
G1	A	E	I	A	1
H1	I	A	VH	1
VH	J	A	0V
.ends HI2220P701R-10
*$
.subckt HI2520P751R-10 A B
R1	A   	E   829.8062
L1	A	F   2.1168e-006
C1	A	C   1.8647e-012
ER	H	A	TABLE { abs(V(I,A)) }
+ ((0,1)(0.5,0.92901)(1,0.8229)(2,0.70438)(3,0.65352)(4,0.62187))
EL	G	A	TABLE { abs(V(I,A)) }
+ ((0,1)(0.5,0.70767)(1,0.41445)(2,0.18367)(3,0.10322)(4,0.067666))
EC	D	A	TABLE { abs(V(I,A)) }
+ ((0,1)(0.5,0.99712)(1,0.99892)(2,1.0255)(3,1.0718)(4,1.118))
R2	G	A	1G
R3	D	A	1G
F1	A	F	V1	1
F2	B	A	V2	1
V1	K	A	0V
V2	A	L	0V
E1	E	K 	poly(2) (F,A) (G,A) 0 0 0 0 1
E2	C	L 	poly(2) (D,A) (B,A) 0 0 0 0 1
EM	B	J	VALUE { V(H,A) * V(E,A) }
G1	A	E	I	A	1
H1	I	A	VH	1
VH	J	A	0V
.ends HI2520P751R-10
*$
.subckt HR2220P601R-10 A B
R1	A   	E   649.7497
L1	A	F   1.4376e-006
C1	A	C   1.9001e-012
ER	H	A	TABLE { abs(V(I,A)) }
+ ((0,1)(0.5,0.95085)(1,0.87602)(2,0.75804)(3,0.70291)(4,0.66576))
EL	G	A	TABLE { abs(V(I,A)) }
+ ((0,1)(0.5,0.81501)(1,0.49769)(2,0.23755)(3,0.14023)(4,0.095125))
EC	D	A	TABLE { abs(V(I,A)) }
+ ((0,1)(0.5,1.0068)(1,1.0165)(2,1.0375)(3,1.0623)(4,1.0794))
R2	G	A	1G
R3	D	A	1G
F1	A	F	V1	1
F2	B	A	V2	1
V1	K	A	0V
V2	A	L	0V
E1	E	K 	poly(2) (F,A) (G,A) 0 0 0 0 1
E2	C	L 	poly(2) (D,A) (B,A) 0 0 0 0 1
EM	B	J	VALUE { V(H,A) * V(E,A) }
G1	A	E	I	A	1
H1	I	A	VH	1
VH	J	A	0V
.ends HR2220P601R-10
*$
.subckt HZ0805C202R-10 A B
R1	A   	E   1925.2331
L1	A	F   4.5847e-006
C1	A	C   8.95e-013
ER	H	A	TABLE { abs(V(I,A)) }
+ ((0,1)(0.05,0.95513)(0.1,0.86458)(0.2,0.76173)(0.3,0.72094)(0.4,0.69938))
EL	G	A	TABLE { abs(V(I,A)) }
+ ((0,1)(0.05,0.8324)(0.1,0.45831)(0.2,0.21347)(0.3,0.12539)(0.4,0.089072))
EC	D	A	TABLE { abs(V(I,A)) }
+ ((0,1)(0.05,1.0484)(0.1,1.0225)(0.2,1.0354)(0.3,1.0806)(0.4,1.0651))
R2	G	A	1G
R3	D	A	1G
F1	A	F	V1	1
F2	B	A	V2	1
V1	K	A	0V
V2	A	L	0V
E1	E	K 	poly(2) (F,A) (G,A) 0 0 0 0 1
E2	C	L 	poly(2) (D,A) (B,A) 0 0 0 0 1
EM	B	J	VALUE { V(H,A) * V(E,A) }
G1	A	E	I	A	1
H1	I	A	VH	1
VH	J	A	0V
.ends HZ0805C202R-10
*$
.subckt MI1206L501R-10 A B
R1	A   	E   535.6815
L1	A	F   1.3471e-006
C1	A	C   1.9216e-012
ER	H	A	TABLE { abs(V(I,A)) }
+ ((0,1)(0.25,0.80272)(0.5,0.70518)(1,0.66672)(1.5,0.66203)(2,0.65409))
EL	G	A	TABLE { abs(V(I,A)) }
+ ((0,1)(0.25,0.3768)(0.5,0.17743)(1,0.078311)(1.5,0.052134)(2,0.039962))
EC	D	A	TABLE { abs(V(I,A)) }
+ ((0,1)(0.25,1.0419)(0.5,1.0928)(1,1.19)(1.5,1.2388)(2,1.2534))
R2	G	A	1G
R3	D	A	1G
F1	A	F	V1	1
F2	B	A	V2	1
V1	K	A	0V
V2	A	L	0V
E1	E	K 	poly(2) (F,A) (G,A) 0 0 0 0 1
E2	C	L 	poly(2) (D,A) (B,A) 0 0 0 0 1
EM	B	J	VALUE { V(H,A) * V(E,A) }
G1	A	E	I	A	1
H1	I	A	VH	1
VH	J	A	0V
.ends MI1206L501R-10
*$
.subckt HZ0805D152R-10 A B
R1	A   	E   1590.0753
L1	A	F   2.088e-006
C1	A	C   1.0356e-012
ER	H	A	TABLE { abs(V(I,A)) }
+ ((0,1)(0.05,0.97921)(0.1,0.96844)(0.2,0.94766)(0.3,0.94763)(0.4,0.94037))
EL	G	A	TABLE { abs(V(I,A)) }
+ ((0,1)(0.05,0.87734)(0.1,0.73105)(0.2,0.52442)(0.3,0.37966)(0.4,0.29111))
EC	D	A	TABLE { abs(V(I,A)) }
+ ((0,1)(0.05,0.9994)(0.1,1.0244)(0.2,1.0428)(0.3,1.0606)(0.4,1.0725))
R2	G	A	1G
R3	D	A	1G
F1	A	F	V1	1
F2	B	A	V2	1
V1	K	A	0V
V2	A	L	0V
E1	E	K 	poly(2) (F,A) (G,A) 0 0 0 0 1
E2	C	L 	poly(2) (D,A) (B,A) 0 0 0 0 1
EM	B	J	VALUE { V(H,A) * V(E,A) }
G1	A	E	I	A	1
H1	I	A	VH	1
VH	J	A	0V
.ends HZ0805D152R-10
*$
.subckt HZ0805D102R-10 A B
R1	A   	E   1048.5313
L1	A	F   2.1947e-006
C1	A	C   1.0263e-012
ER	H	A	TABLE { abs(V(I,A)) }
+ ((0,1)(0.1,0.94726)(0.2,0.88911)(0.3,0.8823)(0.4,0.88577)(0.5,0.89038))
EL	G	A	TABLE { abs(V(I,A)) }
+ ((0,1)(0.1,0.82226)(0.2,0.38239)(0.3,0.2529)(0.4,0.18053)(0.5,0.13974))
EC	D	A	TABLE { abs(V(I,A)) }
+ ((0,1)(0.1,0.99391)(0.2,1.0542)(0.3,1.0848)(0.4,1.1197)(0.5,1.1377))
R2	G	A	1G
R3	D	A	1G
F1	A	F	V1	1
F2	B	A	V2	1
V1	K	A	0V
V2	A	L	0V
E1	E	K 	poly(2) (F,A) (G,A) 0 0 0 0 1
E2	C	L 	poly(2) (D,A) (B,A) 0 0 0 0 1
EM	B	J	VALUE { V(H,A) * V(E,A) }
G1	A	E	I	A	1
H1	I	A	VH	1
VH	J	A	0V
.ends HZ0805D102R-10
*$
.subckt HZ0603A222R-10 A B
R1	A   	E   2108.8236
L1	A	F   3.1898e-006
C1	A	C   9.2299e-013
ER	H	A	TABLE { abs(V(I,A)) }
+ ((0,1)(0.02,1.009)(0.05,1.0393)(0.07,1.028)(0.1,0.94164))
EL	G	A	TABLE { abs(V(I,A)) }
+ ((0,1)(0.02,1.1776)(0.05,1.3789)(0.07,1.2487)(0.1,0.86122))
EC	D	A	TABLE { abs(V(I,A)) }
+ ((0,1)(0.02,0.96641)(0.05,0.95312)(0.07,0.95686)(0.1,0.94909))
R2	G	A	1G
R3	D	A	1G
F1	A	F	V1	1
F2	B	A	V2	1
V1	K	A	0V
V2	A	L	0V
E1	E	K 	poly(2) (F,A) (G,A) 0 0 0 0 1
E2	C	L 	poly(2) (D,A) (B,A) 0 0 0 0 1
EM	B	J	VALUE { V(H,A) * V(E,A) }
G1	A	E	I	A	1
H1	I	A	VH	1
VH	J	A	0V
.ends HZ0603A222R-10
*$
.subckt HZ0603B102R-10 A B
R1	A   	E   1081.8232
L1	A	F   2.1065e-006
C1	A	C   5.6173e-013
ER	H	A	TABLE { abs(V(I,A)) }
+ ((0,1)(0.05,0.92639)(0.1,0.84641)(0.15,0.79883)(0.2,0.7786))
EL	G	A	TABLE { abs(V(I,A)) }
+ ((0,1)(0.05,0.61028)(0.1,0.36339)(0.15,0.23922)(0.2,0.16718))
EC	D	A	TABLE { abs(V(I,A)) }
+ ((0,1)(0.05,1.0053)(0.1,0.99633)(0.15,1.0066)(0.2,1.0357))
R2	G	A	1G
R3	D	A	1G
F1	A	F	V1	1
F2	B	A	V2	1
V1	K	A	0V
V2	A	L	0V
E1	E	K 	poly(2) (F,A) (G,A) 0 0 0 0 1
E2	C	L 	poly(2) (D,A) (B,A) 0 0 0 0 1
EM	B	J	VALUE { V(H,A) * V(E,A) }
G1	A	E	I	A	1
H1	I	A	VH	1
VH	J	A	0V
.ends HZ0603B102R-10
*$
.subckt HZ0805G471R-10 A B
R1	A   	E   554.7943
L1	A	F   8.6534e-007
C1	A	C   9.0222e-013
ER	H	A	TABLE { abs(V(I,A)) }
+ ((0,1)(0.1,0.92646)(0.2,0.89542)(0.3,0.887)(0.5,0.9)(0.7,0.91894))
EL	G	A	TABLE { abs(V(I,A)) }
+ ((0,1)(0.1,0.57205)(0.2,0.34002)(0.3,0.23206)(0.5,0.13807)(0.7,0.10029))
EC	D	A	TABLE { abs(V(I,A)) }
+ ((0,1)(0.1,1.0035)(0.2,1.0294)(0.3,1.0676)(0.5,1.125)(0.7,1.1574))
R2	G	A	1G
R3	D	A	1G
F1	A	F	V1	1
F2	B	A	V2	1
V1	K	A	0V
V2	A	L	0V
E1	E	K 	poly(2) (F,A) (G,A) 0 0 0 0 1
E2	C	L 	poly(2) (D,A) (B,A) 0 0 0 0 1
EM	B	J	VALUE { V(H,A) * V(E,A) }
G1	A	E	I	A	1
H1	I	A	VH	1
VH	J	A	0V
.ends HZ0805G471R-10
*$
.subckt HI2220Q401R-10 A B
R1	A   	E   435.2949
L1	A	F   7.833e-007
C1	A	C   1.7145e-012
ER	H	A	TABLE { abs(V(I,A)) }
+ ((0,1)(1,0.87473)(2,0.77046)(3,0.73016)(4,0.70525)(5,0.6854))
EL	G	A	TABLE { abs(V(I,A)) }
+ ((0,1)(1,0.63294)(2,0.32988)(3,0.18602)(4,0.12632)(5,0.094621))
EC	D	A	TABLE { abs(V(I,A)) }
+ ((0,1)(1,1.0035)(2,1.0142)(3,1.0587)(4,1.1035)(5,1.1435))
R2	G	A	1G
R3	D	A	1G
F1	A	F	V1	1
F2	B	A	V2	1
V1	K	A	0V
V2	A	L	0V
E1	E	K 	poly(2) (F,A) (G,A) 0 0 0 0 1
E2	C	L 	poly(2) (D,A) (B,A) 0 0 0 0 1
EM	B	J	VALUE { V(H,A) * V(E,A) }
G1	A	E	I	A	1
H1	I	A	VH	1
VH	J	A	0V
.ends HI2220Q401R-10
*$
.subckt MI0603J601R-10 A B
R1	A   	E   678.3418
L1	A	F   1.0292e-006
C1	A	C   8.3946e-013
ER	H	A	TABLE { abs(V(I,A)) }
+ ((0,1)(0.1,0.87454)(0.25,0.76967)(0.5,0.76921)(0.75,0.79941)(1,0.83331))
EL	G	A	TABLE { abs(V(I,A)) }
+ ((0,1)(0.1,0.50228)(0.25,0.1944)(0.5,0.084666)(0.75,0.057652)(1,0.045455))
EC	D	A	TABLE { abs(V(I,A)) }
+ ((0,1)(0.1,1.0004)(0.25,1.0348)(0.5,1.1025)(0.75,1.1267)(1,1.1529))
R2	G	A	1G
R3	D	A	1G
F1	A	F	V1	1
F2	B	A	V2	1
V1	K	A	0V
V2	A	L	0V
E1	E	K 	poly(2) (F,A) (G,A) 0 0 0 0 1
E2	C	L 	poly(2) (D,A) (B,A) 0 0 0 0 1
EM	B	J	VALUE { V(H,A) * V(E,A) }
G1	A	E	I	A	1
H1	I	A	VH	1
VH	J	A	0V
.ends MI0603J601R-10
*$
.subckt MI0805K601R-10 A B
R1	A   	E   749.0658
L1	A	F   1.3812e-006
C1	A	C   1.0921e-012
ER	H	A	TABLE { abs(V(I,A)) }
+ ((0,1)(0.25,0.8149)(0.5,0.73393)(0.75,0.72389)(1,0.74255)(1.5,0.79916))
EL	G	A	TABLE { abs(V(I,A)) }
+ ((0,1)(0.25,0.29812)(0.5,0.12852)(0.75,0.077381)(1,0.055621)(1.5,0.037955))
EC	D	A	TABLE { abs(V(I,A)) }
+ ((0,1)(0.25,0.99558)(0.5,1.0296)(0.75,1.0687)(1,1.104)(1.5,1.1533))
R2	G	A	1G
R3	D	A	1G
F1	A	F	V1	1
F2	B	A	V2	1
V1	K	A	0V
V2	A	L	0V
E1	E	K 	poly(2) (F,A) (G,A) 0 0 0 0 1
E2	C	L 	poly(2) (D,A) (B,A) 0 0 0 0 1
EM	B	J	VALUE { V(H,A) * V(E,A) }
G1	A	E	I	A	1
H1	I	A	VH	1
VH	J	A	0V
.ends MI0805K601R-10
*$
.subckt HZ0805E601R-10 A B
R1	A   	E   662.2182
L1	A	F   1.0763e-006
C1	A	C   7.7306e-013
ER	H	A	TABLE { abs(V(I,A)) }
+ ((0,1)(0.1,0.903)(0.2,0.83985)(0.3,0.80671)(0.4,0.78529)(0.5,0.77596))
EL	G	A	TABLE { abs(V(I,A)) }
+ ((0,1)(0.1,0.5782)(0.2,0.347)(0.3,0.23764)(0.4,0.17574)(0.5,0.13705))
EC	D	A	TABLE { abs(V(I,A)) }
+ ((0,1)(0.1,1.0076)(0.2,1.0391)(0.3,1.0701)(0.4,1.1017)(0.5,1.131))
R2	G	A	1G
R3	D	A	1G
F1	A	F	V1	1
F2	B	A	V2	1
V1	K	A	0V
V2	A	L	0V
E1	E	K 	poly(2) (F,A) (G,A) 0 0 0 0 1
E2	C	L 	poly(2) (D,A) (B,A) 0 0 0 0 1
EM	B	J	VALUE { V(H,A) * V(E,A) }
G1	A	E	I	A	1
H1	I	A	VH	1
VH	J	A	0V
.ends HZ0805E601R-10
*$
.subckt HZ0603C601R-10 A B
R1	A   	E   757.222
L1	A	F   1.3919e-006
C1	A	C   7.1959e-013
ER	H	A	TABLE { abs(V(I,A)) }
+ ((0,1)(0.05,0.93754)(0.1,0.83713)(0.2,0.77295)(0.3,0.76718))
EL	G	A	TABLE { abs(V(I,A)) }
+ ((0,1)(0.05,0.8755)(0.1,0.42926)(0.2,0.17893)(0.3,0.11073))
EC	D	A	TABLE { abs(V(I,A)) }
+ ((0,1)(0.05,0.99815)(0.1,0.97913)(0.2,1.0179)(0.3,1.0585))
R2	G	A	1G
R3	D	A	1G
F1	A	F	V1	1
F2	B	A	V2	1
V1	K	A	0V
V2	A	L	0V
E1	E	K 	poly(2) (F,A) (G,A) 0 0 0 0 1
E2	C	L 	poly(2) (D,A) (B,A) 0 0 0 0 1
EM	B	J	VALUE { V(H,A) * V(E,A) }
G1	A	E	I	A	1
H1	I	A	VH	1
VH	J	A	0V
.ends HZ0603C601R-10
*$
.subckt HI0805R800R-10 A B
R1	A   	E   91.5867
L1	A	F   7.554e-008
C1	A	C   1.4403e-012
ER	H	A	TABLE { abs(V(I,A)) }
+ ((0,1)(1,0.83448)(2,0.75305)(3,0.69947)(4,0.65115)(5,0.59883))
EL	G	A	TABLE { abs(V(I,A)) }
+ ((0,1)(1,0.25967)(2,0.1374)(3,0.093271)(4,0.070882)(5,0.058461))
EC	D	A	TABLE { abs(V(I,A)) }
+ ((0,1)(1,1.0668)(2,1.1277)(3,1.1672)(4,1.1928)(5,1.1646))
R2	G	A	1G
R3	D	A	1G
F1	A	F	V1	1
F2	B	A	V2	1
V1	K	A	0V
V2	A	L	0V
E1	E	K 	poly(2) (F,A) (G,A) 0 0 0 0 1
E2	C	L 	poly(2) (D,A) (B,A) 0 0 0 0 1
EM	B	J	VALUE { V(H,A) * V(E,A) }
G1	A	E	I	A	1
H1	I	A	VH	1
VH	J	A	0V
.ends HI0805R800R-10
*$
.subckt HI1206P121R-10 A B
R1	A   	E   160.34
L1	A	F   1.7104e-007
C1	A	C   8.497e-013
ER	H	A	TABLE { abs(V(I,A)) }
+ ((0,1)(1,0.76835)(2,0.72674)(3,0.70251)(4,0.64848)(5,0.53353))
EL	G	A	TABLE { abs(V(I,A)) }
+ ((0,1)(1,0.17096)(2,0.097071)(3,0.072236)(4,0.057977)(5,0.040982))
EC	D	A	TABLE { abs(V(I,A)) }
+ ((0,1)(1,0.97825)(2,0.93735)(3,0.95524)(4,0.98668)(5,1.0707))
R2	G	A	1G
R3	D	A	1G
F1	A	F	V1	1
F2	B	A	V2	1
V1	K	A	0V
V2	A	L	0V
E1	E	K 	poly(2) (F,A) (G,A) 0 0 0 0 1
E2	C	L 	poly(2) (D,A) (B,A) 0 0 0 0 1
EM	B	J	VALUE { V(H,A) * V(E,A) }
G1	A	E	I	A	1
H1	I	A	VH	1
VH	J	A	0V
.ends HI1206P121R-10
*$
.subckt HI2220P251R-10 A B
R1	A   	E   321.586
L1	A	F   4.2026e-007
C1	A	C   1.6051e-012
ER	H	A	TABLE { abs(V(I,A)) }
+ ((0,1)(1,0.89346)(2,0.80094)(3,0.74948)(4,0.71129)(5,0.68012))
EL	G	A	TABLE { abs(V(I,A)) }
+ ((0,1)(1,0.73679)(2,0.43283)(3,0.27224)(4,0.19328)(5,0.14668))
EC	D	A	TABLE { abs(V(I,A)) }
+ ((0,1)(1,1.0264)(2,1.075)(3,1.1354)(4,1.1796)(5,1.2068))
R2	G	A	1G
R3	D	A	1G
F1	A	F	V1	1
F2	B	A	V2	1
V1	K	A	0V
V2	A	L	0V
E1	E	K 	poly(2) (F,A) (G,A) 0 0 0 0 1
E2	C	L 	poly(2) (D,A) (B,A) 0 0 0 0 1
EM	B	J	VALUE { V(H,A) * V(E,A) }
G1	A	E	I	A	1
H1	I	A	VH	1
VH	J	A	0V
.ends HI2220P251R-10
*$
.subckt HI2220R301R-10 A B
R1	A   	E   372.6717
L1	A	F   4.1901e-007
C1	A	C   1.7101e-012
ER	H	A	TABLE { abs(V(I,A)) }
+ ((0,1)(1,0.97408)(2,0.91271)(3,0.84712)(4,0.78117)(5,0.71984))
EL	G	A	TABLE { abs(V(I,A)) }
+ ((0,1)(1,0.71628)(2,0.55751)(3,0.44024)(4,0.36062)(5,0.29922))
EC	D	A	TABLE { abs(V(I,A)) }
+ ((0,1)(1,1.0666)(2,1.1228)(3,1.1853)(4,1.2268)(5,1.2592))
R2	G	A	1G
R3	D	A	1G
F1	A	F	V1	1
F2	B	A	V2	1
V1	K	A	0V
V2	A	L	0V
E1	E	K 	poly(2) (F,A) (G,A) 0 0 0 0 1
E2	C	L 	poly(2) (D,A) (B,A) 0 0 0 0 1
EM	B	J	VALUE { V(H,A) * V(E,A) }
G1	A	E	I	A	1
H1	I	A	VH	1
VH	J	A	0V
.ends HI2220R301R-10
*$
.subckt MI0603L301R-10 A B
R1	A   	E   349.761
L1	A	F   3.8042e-007
C1	A	C   6.4653e-013
ER	H	A	TABLE { abs(V(I,A)) }
+ ((0,1)(0.25,0.79798)(0.5,0.7368)(1,0.72681)(1.5,0.73369)(2,0.71887))
EL	G	A	TABLE { abs(V(I,A)) }
+ ((0,1)(0.25,0.24511)(0.5,0.12304)(1,0.065335)(1.5,0.047822)(2,0.038964))
EC	D	A	TABLE { abs(V(I,A)) }
+ ((0,1)(0.25,1.0415)(0.5,1.0661)(1,1.1093)(1.5,1.1542)(2,1.1986))
R2	G	A	1G
R3	D	A	1G
F1	A	F	V1	1
F2	B	A	V2	1
V1	K	A	0V
V2	A	L	0V
E1	E	K 	poly(2) (F,A) (G,A) 0 0 0 0 1
E2	C	L 	poly(2) (D,A) (B,A) 0 0 0 0 1
EM	B	J	VALUE { V(H,A) * V(E,A) }
G1	A	E	I	A	1
H1	I	A	VH	1
VH	J	A	0V
.ends MI0603L301R-10
*$
.subckt MI0805L301R-10 A B
R1	A   	E   321.2601
L1	A	F   5.7075e-007
C1	A	C   9.3998e-013
ER	H	A	TABLE { abs(V(I,A)) }
+ ((0,1)(0.25,0.84546)(0.5,0.84494)(1,0.86308)(1.5,0.86822)(2,0.84226))
EL	G	A	TABLE { abs(V(I,A)) }
+ ((0,1)(0.25,0.21974)(0.5,0.1164)(1,0.068719)(1.5,0.052543)(2,0.042716))
EC	D	A	TABLE { abs(V(I,A)) }
+ ((0,1)(0.25,1.0348)(0.5,1.0851)(1,1.1224)(1.5,1.1506)(2,1.1844))
R2	G	A	1G
R3	D	A	1G
F1	A	F	V1	1
F2	B	A	V2	1
V1	K	A	0V
V2	A	L	0V
E1	E	K 	poly(2) (F,A) (G,A) 0 0 0 0 1
E2	C	L 	poly(2) (D,A) (B,A) 0 0 0 0 1
EM	B	J	VALUE { V(H,A) * V(E,A) }
G1	A	E	I	A	1
H1	I	A	VH	1
VH	J	A	0V
.ends MI0805L301R-10
*$
.subckt MI0805M221R-10 A B
R1	A   	E   302.7242
L1	A	F   3.6152e-007
C1	A	C   8.5463e-013
ER	H	A	TABLE { abs(V(I,A)) }
+ ((0,1)(0.5,0.74637)(1,0.69767)(1.5,0.68252)(2,0.66786)(2.5,0.64443))
EL	G	A	TABLE { abs(V(I,A)) }
+ ((0,1)(0.5,0.19763)(1,0.095366)(1.5,0.066166)(2,0.052515)(2.5,0.043945))
EC	D	A	TABLE { abs(V(I,A)) }
+ ((0,1)(0.5,1.0395)(1,1.0979)(1.5,1.1432)(2,1.1778)(2.5,1.2085))
R2	G	A	1G
R3	D	A	1G
F1	A	F	V1	1
F2	B	A	V2	1
V1	K	A	0V
V2	A	L	0V
E1	E	K 	poly(2) (F,A) (G,A) 0 0 0 0 1
E2	C	L 	poly(2) (D,A) (B,A) 0 0 0 0 1
EM	B	J	VALUE { V(H,A) * V(E,A) }
G1	A	E	I	A	1
H1	I	A	VH	1
VH	J	A	0V
.ends MI0805M221R-10
*$
.subckt LI0805G301R-10 A B
R1	A   	E   319.1716
L1	A	F   3.8775e-007
C1	A	C   8.7153e-013
ER	H	A	TABLE { abs(V(I,A)) }
+ ((0,1)(0.1,0.947)(0.2,0.88897)(0.3,0.84402)(0.5,0.79592)(0.7,0.77421))
EL	G	A	TABLE { abs(V(I,A)) }
+ ((0,1)(0.1,0.75541)(0.2,0.52587)(0.3,0.37624)(0.5,0.21311)(0.7,0.14518))
EC	D	A	TABLE { abs(V(I,A)) }
+ ((0,1)(0.1,0.99686)(0.2,0.99575)(0.3,1.0022)(0.5,1.0312)(0.7,1.0617))
R2	G	A	1G
R3	D	A	1G
F1	A	F	V1	1
F2	B	A	V2	1
V1	K	A	0V
V2	A	L	0V
E1	E	K 	poly(2) (F,A) (G,A) 0 0 0 0 1
E2	C	L 	poly(2) (D,A) (B,A) 0 0 0 0 1
EM	B	J	VALUE { V(H,A) * V(E,A) }
G1	A	E	I	A	1
H1	I	A	VH	1
VH	J	A	0V
.ends LI0805G301R-10
*$
.subckt HI0805O121R-10 A B
R1	A   	E   173.3954
L1	A	F   2.7112e-007
C1	A	C   1.9012e-012
ER	H	A	TABLE { abs(V(I,A)) }
+ ((0,1)(1,0.79219)(2,0.83587)(3,0.85722)(4,0.81489)(5,0.63113))
EL	G	A	TABLE { abs(V(I,A)) }
+ ((0,1)(1,0.075432)(2,0.046927)(3,0.036749)(4,0.030176)(5,0.025741))
EC	D	A	TABLE { abs(V(I,A)) }
+ ((0,1)(1,1.0284)(2,1.0485)(3,1.0786)(4,1.123)(5,1.0361))
R2	G	A	1G
R3	D	A	1G
F1	A	F	V1	1
F2	B	A	V2	1
V1	K	A	0V
V2	A	L	0V
E1	E	K 	poly(2) (F,A) (G,A) 0 0 0 0 1
E2	C	L 	poly(2) (D,A) (B,A) 0 0 0 0 1
EM	B	J	VALUE { V(H,A) * V(E,A) }
G1	A	E	I	A	1
H1	I	A	VH	1
VH	J	A	0V
.ends HI0805O121R-10
*$
.subckt HZ0402A601R-10 A B
R1	A   	E   856.6217
L1	A	F   9.5947e-007
C1	A	C   3.2504e-013
ER	H	A	TABLE { abs(V(I,A)) }
+ ((0,1)(0.02,0.94885)(0.05,0.8944)(0.07,0.85842)(0.1,0.83346))
EL	G	A	TABLE { abs(V(I,A)) }
+ ((0,1)(0.02,0.71685)(0.05,0.48247)(0.07,0.345)(0.1,0.26417))
EC	D	A	TABLE { abs(V(I,A)) }
+ ((0,1)(0.02,0.9882)(0.05,0.98303)(0.07,0.989)(0.1,0.99869))
R2	G	A	1G
R3	D	A	1G
F1	A	F	V1	1
F2	B	A	V2	1
V1	K	A	0V
V2	A	L	0V
E1	E	K 	poly(2) (F,A) (G,A) 0 0 0 0 1
E2	C	L 	poly(2) (D,A) (B,A) 0 0 0 0 1
EM	B	J	VALUE { V(H,A) * V(E,A) }
G1	A	E	I	A	1
H1	I	A	VH	1
VH	J	A	0V
.ends HZ0402A601R-10
*$
.subckt LI1206H151R-10 A B
R1	A   	E   192.4919
L1	A	F   1.9073e-007
C1	A	C   7.7858e-013
ER	H	A	TABLE { abs(V(I,A)) }
+ ((0,1)(0.1,0.9992)(0.2,0.93463)(0.4,0.88125)(0.6,0.83524)(0.8,0.79802))
EL	G	A	TABLE { abs(V(I,A)) }
+ ((0,1)(0.1,1.1044)(0.2,0.84755)(0.4,0.51903)(0.6,0.36276)(0.8,0.26594))
EC	D	A	TABLE { abs(V(I,A)) }
+ ((0,1)(0.1,1.0089)(0.2,0.99576)(0.4,0.99095)(0.6,1.0036)(0.8,1.0148))
R2	G	A	1G
R3	D	A	1G
F1	A	F	V1	1
F2	B	A	V2	1
V1	K	A	0V
V2	A	L	0V
E1	E	K 	poly(2) (F,A) (G,A) 0 0 0 0 1
E2	C	L 	poly(2) (D,A) (B,A) 0 0 0 0 1
EM	B	J	VALUE { V(H,A) * V(E,A) }
G1	A	E	I	A	1
H1	I	A	VH	1
VH	J	A	0V
.ends LI1206H151R-10
*$
.subckt LI0603D301R-10 A B
R1	A   E   464.9529
L1	A	F   7.0585e-007
C1	A	C   5.9771e-013
ER	H	A	TABLE { abs(V(I,A)) }
+ ((0,1)(0.05,0.94455)(0.1,0.86367)(0.2,0.79066)(0.3,0.75975)(0.4,0.74632))
EL	G	A	TABLE { abs(V(I,A)) }
+ ((0,1)(0.05,0.97343)(0.1,0.51323)(0.2,0.2417)(0.3,0.15361)(0.4,0.11148))
EC	D	A	TABLE { abs(V(I,A)) }
+ ((0,1)(0.05,1.0047)(0.1,0.98346)(0.2,1.0123)(0.3,1.0402)(0.4,1.058))
R2	G	A	1G
R3	D	A	1G
F1	A	F	V1	1
F2	B	A	V2	1
V1	K	A	0V
V2	A	L	0V
E1	E	K 	poly(2) (F,A) (G,A) 0 0 0 0 1
E2	C	L 	poly(2) (D,A) (B,A) 0 0 0 0 1
EM	B	J	VALUE { V(H,A) * V(E,A) }
G1	A	E	I	A	1
H1	I	A	VH	1
VH	J	A	0V
.ends LI0603D301R-10
*$
.subckt HZ0603B112R-10 A B
R1	A   E   1783.1928
L1	A	F   1.4972e-006
C1	A	C   1.1266e-013
ER	H	A	TABLE { abs(V(I,A)) }
+ ((0,1)(0.05,0.9345)(0.1,0.89243)(0.15,0.87148)(0.2,0.86098))
EL	G	A	TABLE { abs(V(I,A)) }
+ ((0,1)(0.05,0.61023)(0.1,0.38101)(0.15,0.26856)(0.2,0.20638))
EC	D	A	TABLE { abs(V(I,A)) }
+ ((0,1)(0.05,1.0203)(0.1,1.0541)(0.15,1.0864)(0.2,1.1151))
R2	G	A	1G
R3	D	A	1G
F1	A	F	V1	1
F2	B	A	V2	1
V1	K	A	0V
V2	A	L	0V
E1	E	K 	poly(2) (F,A) (G,A) 0 0 0 0 1
E2	C	L 	poly(2) (D,A) (B,A) 0 0 0 0 1
EM	B	J	VALUE { V(H,A) * V(E,A) }
G1	A	E	I	A	1
H1	I	A	VH	1
VH	J	A	0V
.ends HZ0603B112R-10
*$
.subckt HI1206T161R-10 A B
R1	A   E   213.5671
L1	A	F   2.1473e-007
C1	A	C   7.6525e-013
ER	H	A	TABLE { abs(V(I,A)) }
+ ((0,1)(1,0.78968)(2,0.71658)(3,0.66572)(4,0.60765)(5,0.53185))
EL	G	A	TABLE { abs(V(I,A)) }
+ ((0,1)(1,0.2723)(2,0.13874)(3,0.091256)(4,0.067191)(5,0.052193))
EC	D	A	TABLE { abs(V(I,A)) }
+ ((0,1)(1,1.0405)(2,1.0913)(3,1.1393)(4,1.167)(5,1.1533))
R2	G	A	1G
R3	D	A	1G
F1	A	F	V1	1
F2	B	A	V2	1
V1	K	A	0V
V2	A	L	0V
E1	E	K 	poly(2) (F,A) (G,A) 0 0 0 0 1
E2	C	L 	poly(2) (D,A) (B,A) 0 0 0 0 1
EM	B	J	VALUE { V(H,A) * V(E,A) }
G1	A	E	I	A	1
H1	I	A	VH	1
VH	J	A	0V
.ends HI1206T161R-10
*$
.subckt HI2220P271R-10 A B
R1	A   E   291.8954
L1	A	F   3.3753e-007
C1	A	C   4.9855e-013
ER	H	A	TABLE { abs(V(I,A)) }
+ ((0,1)(1,0.85387)(2,0.78485)(3,0.74448)(4,0.69748)(5,0.64755))
EL	G	A	TABLE { abs(V(I,A)) }
+ ((0,1)(1,0.5179)(2,0.31743)(3,0.21739)(4,0.17049)(5,0.13881))
EC	D	A	TABLE { abs(V(I,A)) }
+ ((0,1)(1,0.98321)(2,0.97221)(3,0.97175)(4,0.93851)(5,0.90807))
R2	G	A	1G
R3	D	A	1G
F1	A	F	V1	1
F2	B	A	V2	1
V1	K	A	0V
V2	A	L	0V
E1	E	K 	poly(2) (F,A) (G,A) 0 0 0 0 1
E2	C	L 	poly(2) (D,A) (B,A) 0 0 0 0 1
EM	B	J	VALUE { V(H,A) * V(E,A) }
G1	A	E	I	A	1
H1	I	A	VH	1
VH	J	A	0V
.ends HI2220P271R-10
*$
.subckt HI2220P551R-10 A B
R1	A   	E   736.8877
L1	A	F   5.5672e-007
C1	A	C   4.2982e-013
ER	H	A	TABLE { abs(V(I,A)) }
+ ((0,1)(1,0.96472)(2,0.92834)(3,0.89546)(4,0.85782))
EL	G	A	TABLE { abs(V(I,A)) }
+ ((0,1)(1,0.59491)(2,0.39845)(3,0.28419)(4,0.21114))
EC	D	A	TABLE { abs(V(I,A)) }
+ ((0,1)(1,1.0292)(2,1.0527)(3,1.0756)(4,1.1039))
R2	G	A	1G
R3	D	A	1G
F1	A	F	V1	1
F2	B	A	V2	1
V1	K	A	0V
V2	A	L	0V
E1	E	K 	poly(2) (F,A) (G,A) 0 0 0 0 1
E2	C	L 	poly(2) (D,A) (B,A) 0 0 0 0 1
EM	B	J	VALUE { V(H,A) * V(E,A) }
G1	A	E	I	A	1
H1	I	A	VH	1
VH	J	A	0V
.ends HI2220P551R-10
*$
.subckt LI0805H121R-10 A B
R1	A   E   150.8768
L1	A	F   1.7098e-007
C1	A	C   6.5458e-013
ER	H	A	TABLE { abs(V(I,A)) }
+ ((0,1)(0.1,0.98702)(0.2,0.93699)(0.4,0.87522)(0.6,0.82195)(0.8,0.78444))
EL	G	A	TABLE { abs(V(I,A)) }
+ ((0,1)(0.1,0.9397)(0.2,0.56591)(0.4,0.3163)(0.6,0.20825)(0.8,0.1503))
EC	D	A	TABLE { abs(V(I,A)) }
+ ((0,1)(0.1,1.0006)(0.2,1.0007)(0.4,1.0347)(0.6,1.0693)(0.8,1.0951))
R2	G	A	1G
R3	D	A	1G
F1	A	F	V1	1
F2	B	A	V2	1
V1	K	A	0V
V2	A	L	0V
E1	E	K 	poly(2) (F,A) (G,A) 0 0 0 0 1
E2	C	L 	poly(2) (D,A) (B,A) 0 0 0 0 1
EM	B	J	VALUE { V(H,A) * V(E,A) }
G1	A	E	I	A	1
H1	I	A	VH	1
VH	J	A	0V
.ends LI0805H121R-10
*$
.subckt LI0402B301R-10 A B
R1	A   E   445.4064
L1	A	F   4.2794e-007
C1	A	C   3.9186e-013
ER	H	A	TABLE { abs(V(I,A)) }
+ ((0,1)(0.02,0.95332)(0.05,0.90886)(0.1,0.86095)(0.15,0.84508)(0.2,0.8481))
EL	G	A	TABLE { abs(V(I,A)) }
+ ((0,1)(0.02,0.73779)(0.05,0.50438)(0.1,0.27917)(0.15,0.18966)(0.2,0.1452))
EC	D	A	TABLE { abs(V(I,A)) }
+ ((0,1)(0.02,0.98553)(0.05,0.98388)(0.1,0.99631)(0.15,0.99839)(0.2,0.99669))
R2	G	A	1G
R3	D	A	1G
F1	A	F	V1	1
F2	B	A	V2	1
V1	K	A	0V
V2	A	L	0V
E1	E	K 	poly(2) (F,A) (G,A) 0 0 0 0 1
E2	C	L 	poly(2) (D,A) (B,A) 0 0 0 0 1
EM	B	J	VALUE { V(H,A) * V(E,A) }
G1	A	E	I	A	1
H1	I	A	VH	1
VH	J	A	0V
.ends LI0402B301R-10
*$
.subckt LI0805H151R-10 A B
R1	A   E   185.1788
L1	A	F   2.4179e-007
C1	A	C   7.3859e-013
ER	H	A	TABLE { abs(V(I,A)) }
+ ((0,1)(0.1,0.91122)(0.2,0.86052)(0.4,0.7907)(0.6,0.74619)(0.8,0.71917))
EL	G	A	TABLE { abs(V(I,A)) }
+ ((0,1)(0.1,0.58462)(0.2,0.37612)(0.4,0.21548)(0.6,0.14938)(0.8,0.11598))
EC	D	A	TABLE { abs(V(I,A)) }
+ ((0,1)(0.1,0.9454)(0.2,0.95102)(0.4,0.95587)(0.6,0.94867)(0.8,0.93065))
R2	G	A	1G
R3	D	A	1G
F1	A	F	V1	1
F2	B	A	V2	1
V1	K	A	0V
V2	A	L	0V
E1	E	K 	poly(2) (F,A) (G,A) 0 0 0 0 1
E2	C	L 	poly(2) (D,A) (B,A) 0 0 0 0 1
EM	B	J	VALUE { V(H,A) * V(E,A) }
G1	A	E	I	A	1
H1	I	A	VH	1
VH	J	A	0V
.ends LI0805H151R-10
*$
.subckt LI0603G121R-10 A B
R1	A   E   184.7514
L1	A	F   1.4033e-007
C1	A	C   6.5068e-013
ER	H	A	TABLE { abs(V(I,A)) }
+ ((0,1)(0.1,0.96932)(0.2,0.95057)(0.3,0.94048)(0.5,0.94333)(0.7,0.95635))
EL	G	A	TABLE { abs(V(I,A)) }
+ ((0,1)(0.1,0.7526)(0.2,0.54154)(0.3,0.42244)(0.5,0.28426)(0.7,0.21872))
EC	D	A	TABLE { abs(V(I,A)) }
+ ((0,1)(0.1,0.99637)(0.2,1.0019)(0.3,1.0111)(0.5,1.0353)(0.7,1.0526))
R2	G	A	1G
R3	D	A	1G
F1	A	F	V1	1
F2	B	A	V2	1
V1	K	A	0V
V2	A	L	0V
E1	E	K 	poly(2) (F,A) (G,A) 0 0 0 0 1
E2	C	L 	poly(2) (D,A) (B,A) 0 0 0 0 1
EM	B	J	VALUE { V(H,A) * V(E,A) }
G1	A	E	I	A	1
H1	I	A	VH	1
VH	J	A	0V
.ends LI0603G121R-10
*$
.subckt HI2220R181R-10 A B
R1	A   E   279.7519
L1	A	F   2.8511e-007
C1	A	C   3.4234e-013
ER	H	A	TABLE { abs(V(I,A)) }
+ ((0,1)(1,0.87503)(2,0.81964)(3,0.76618)(4,0.69476)(5,0.61852))
EL	G	A	TABLE { abs(V(I,A)) }
+ ((0,1)(1,0.53672)(2,0.34537)(3,0.25202)(4,0.18335)(5,0.12577))
EC	D	A	TABLE { abs(V(I,A)) }
+ ((0,1)(1,0.98835)(2,0.98778)(3,0.95708)(4,0.96759)(5,1.0258))
R2	G	A	1G
R3	D	A	1G
F1	A	F	V1	1
F2	B	A	V2	1
V1	K	A	0V
V2	A	L	0V
E1	E	K 	poly(2) (F,A) (G,A) 0 0 0 0 1
E2	C	L 	poly(2) (D,A) (B,A) 0 0 0 0 1
EM	B	J	VALUE { V(H,A) * V(E,A) }
G1	A	E	I	A	1
H1	I	A	VH	1
VH	J	A	0V
.ends HI2220R181R-10
*$
.subckt HZ0603C651R-10 A B
R1	A   E   977.3393
L1	A	F   9.4949e-007
C1	A	C   1.928e-013
ER	H	A	TABLE { abs(V(I,A)) }
+ ((0,1)(0.05,0.93276)(0.1,0.87757)(0.2,0.82927)(0.3,0.81695))
EL	G	A	TABLE { abs(V(I,A)) }
+ ((0,1)(0.05,0.64792)(0.1,0.41227)(0.2,0.21424)(0.3,0.14361))
EC	D	A	TABLE { abs(V(I,A)) }
+ ((0,1)(0.05,0.99599)(0.1,1.0087)(0.2,1.0356)(0.3,1.0502))
R2	G	A	1G
R3	D	A	1G
F1	A	F	V1	1
F2	B	A	V2	1
V1	K	A	0V
V2	A	L	0V
E1	E	K 	poly(2) (F,A) (G,A) 0 0 0 0 1
E2	C	L 	poly(2) (D,A) (B,A) 0 0 0 0 1
EM	B	J	VALUE { V(H,A) * V(E,A) }
G1	A	E	I	A	1
H1	I	A	VH	1
VH	J	A	0V
.ends HZ0603C651R-10
*$
.subckt MI0603M121R-10 A B
R1	A   E   192.5298
L1	A	F   1.933e-007
C1	A	C   7.3744e-013
ER	H	A	TABLE { abs(V(I,A)) }
+ ((0,1)(0.5,0.75112)(1,0.70626)(1.5,0.70653)(2,0.69946)(2.5,0.67998))
EL	G	A	TABLE { abs(V(I,A)) }
+ ((0,1)(0.5,0.16377)(1,0.084817)(1.5,0.061578)(2,0.050247)(2.5,0.043019))
EC	D	A	TABLE { abs(V(I,A)) }
+ ((0,1)(0.5,1.01)(1,0.98316)(1.5,0.9872)(2,0.99402)(2.5,0.99941))
R2	G	A	1G
R3	D	A	1G
F1	A	F	V1	1
F2	B	A	V2	1
V1	K	A	0V
V2	A	L	0V
E1	E	K 	poly(2) (F,A) (G,A) 0 0 0 0 1
E2	C	L 	poly(2) (D,A) (B,A) 0 0 0 0 1
EM	B	J	VALUE { V(H,A) * V(E,A) }
G1	A	E	I	A	1
H1	I	A	VH	1
VH	J	A	0V
.ends MI0603M121R-10
*$
.subckt LI1206H121R-10 A B
R1	A   	E   169.3127
L1	A	F   1.4441e-007
C1	A	C   6.9155e-013
ER	H	A	TABLE { abs(V(I,A)) }
+ ((0,1)(0.1,1.0149)(0.3,0.92229)(0.5,0.87899)(0.8,0.84399)(1,0.83288))
EL	G	A	TABLE { abs(V(I,A)) }
+ ((0,1)(0.1,1.2143)(0.3,0.59174)(0.5,0.40695)(0.8,0.2627)(1,0.21382))
EC	D	A	TABLE { abs(V(I,A)) }
+ ((0,1)(0.1,1.0055)(0.3,0.97684)(0.5,0.9655)(0.8,0.95116)(1,0.94382))
R2	G	A	1G
R3	D	A	1G
F1	A	F	V1	1
F2	B	A	V2	1
V1	K	A	0V
V2	A	L	0V
E1	E	K 	poly(2) (F,A) (G,A) 0 0 0 0 1
E2	C	L 	poly(2) (D,A) (B,A) 0 0 0 0 1
EM	B	J	VALUE { V(H,A) * V(E,A) }
G1	A	E	I	A	1
H1	I	A	VH	1
VH	J	A	0V
.ends LI1206H121R-10
*$
.subckt HI1206N101R-10 A B
R1	A   	E   150.8791
L1	A	F   1.0005e-007
C1	A	C   4.3338e-013
ER	H	A	TABLE { abs(V(I,A)) }
+ ((0,1)(0.25,0.9318)(0.5,0.87091)(1,0.78178)(2,0.66235)(3,0.50624))
EL	G	A	TABLE { abs(V(I,A)) }
+ ((0,1)(0.25,0.58373)(0.5,0.38154)(1,0.21153)(2,0.10058)(3,0.047083))
EC	D	A	TABLE { abs(V(I,A)) }
+ ((0,1)(0.25,1.0568)(0.5,1.1089)(1,1.1903)(2,1.314)(3,1.4786))
R2	G	A	1G
R3	D	A	1G
F1	A	F	V1	1
F2	B	A	V2	1
V1	K	A	0V
V2	A	L	0V
E1	E	K 	poly(2) (F,A) (G,A) 0 0 0 0 1
E2	C	L 	poly(2) (D,A) (B,A) 0 0 0 0 1
EM	B	J	VALUE { V(H,A) * V(E,A) }
G1	A	E	I	A	1
H1	I	A	VH	1
VH	J	A	0V
.ends HI1206N101R-10
*$
.subckt HI2220P171R-10 A B
R1	A   	E   258.4655
L1	A	F   2.0963e-007
C1	A	C   2.8859e-013
ER	H	A	TABLE { abs(V(I,A)) }
+ ((0,1)(1,0.94683)(2,0.88692)(3,0.8312)(4,0.77882)(5,0.72848))
EL	G	A	TABLE { abs(V(I,A)) }
+ ((0,1)(1,0.55029)(2,0.37137)(3,0.25386)(4,0.17452)(5,0.11874))
EC	D	A	TABLE { abs(V(I,A)) }
+ ((0,1)(1,1.0136)(2,0.98435)(3,1.0073)(4,1.0643)(5,1.1573))
R2	G	A	1G
R3	D	A	1G
F1	A	F	V1	1
F2	B	A	V2	1
V1	K	A	0V
V2	A	L	0V
E1	E	K 	poly(2) (F,A) (G,A) 0 0 0 0 1
E2	C	L 	poly(2) (D,A) (B,A) 0 0 0 0 1
EM	B	J	VALUE { V(H,A) * V(E,A) }
G1	A	E	I	A	1
H1	I	A	VH	1
VH	J	A	0V
.ends HI2220P171R-10
*$
.subckt HI2220R151R-10 A B
R1	A   	E   251.5261
L1	A	F   2.7331e-007
C1	A	C   3.4081e-013
ER	H	A	TABLE { abs(V(I,A)) }
+ ((0,1)(1,0.87159)(2,0.76648)(3,0.6806)(4,0.60391)(5,0.53127))
EL	G	A	TABLE { abs(V(I,A)) }
+ ((0,1)(1,0.5155)(2,0.33227)(3,0.22469)(4,0.15139)(5,0.098624))
EC	D	A	TABLE { abs(V(I,A)) }
+ ((0,1)(1,1.0088)(2,0.99956)(3,1.0146)(4,1.0741)(5,1.1627))
R2	G	A	1G
R3	D	A	1G
F1	A	F	V1	1
F2	B	A	V2	1
V1	K	A	0V
V2	A	L	0V
E1	E	K 	poly(2) (F,A) (G,A) 0 0 0 0 1
E2	C	L 	poly(2) (D,A) (B,A) 0 0 0 0 1
EM	B	J	VALUE { V(H,A) * V(E,A) }
G1	A	E	I	A	1
H1	I	A	VH	1
VH	J	A	0V
.ends HI2220R151R-10
*$
.subckt LI0603G800R-10 A B
R1	A   	E   186.6332
L1	A	F   6.7195e-008
C1	A	C   4.9368e-013
ER	H	A	TABLE { abs(V(I,A)) }
+ ((0,1)(0.1,0.99288)(0.2,0.99684)(0.3,1.0186)(0.5,1.0633)(0.7,1.0928))
EL	G	A	TABLE { abs(V(I,A)) }
+ ((0,1)(0.1,1.174)(0.2,0.7225)(0.3,0.59489)(0.5,0.45644)(0.7,0.38415))
EC	D	A	TABLE { abs(V(I,A)) }
+ ((0,1)(0.1,0.98733)(0.2,1.0331)(0.3,1.0616)(0.5,1.1032)(0.7,1.1282))
R2	G	A	1G
R3	D	A	1G
F1	A	F	V1	1
F2	B	A	V2	1
V1	K	A	0V
V2	A	L	0V