Version 4
SHEET 1 936 788
WIRE -272 464 -272 432
WIRE -240 464 -240 448
WIRE -192 128 -208 128
WIRE -192 192 -208 192
WIRE -192 256 -208 256
WIRE -192 320 -208 320
WIRE -16 112 -32 112
WIRE -16 144 -32 144
WIRE -16 176 -32 176
WIRE -16 208 -32 208
WIRE -16 240 -32 240
WIRE -16 272 -32 272
WIRE -16 304 -32 304
WIRE -16 336 -32 336
WIRE 16 304 -16 304
WIRE 16 304 16 224
WIRE 32 240 -16 240
WIRE 32 432 32 240
WIRE 48 112 -16 112
WIRE 48 112 48 16
WIRE 64 336 -16 336
WIRE 64 336 64 240
WIRE 80 112 80 -16
WIRE 80 464 -80 464
WIRE 80 464 80 336
WIRE 96 -48 80 -48
WIRE 96 -16 80 -16
WIRE 96 16 48 16
WIRE 96 432 32 432
WIRE 96 464 80 464
WIRE 96 496 64 496
WIRE 128 272 -16 272
WIRE 128 304 128 272
WIRE 160 -96 -128 -96
WIRE 160 -64 160 -96
WIRE 160 192 160 32
WIRE 160 416 160 256
WIRE 160 544 160 512
WIRE 240 112 80 112
WIRE 240 112 240 -32
WIRE 240 336 80 336
WIRE 240 336 240 112
WIRE 240 480 240 336
WIRE 256 80 256 32
WIRE 256 448 256 368
WIRE 272 80 256 80
WIRE 272 112 240 112
WIRE 272 144 -16 144
WIRE 272 304 128 304
WIRE 272 336 240 336
WIRE 272 368 256 368
WIRE 336 -96 160 -96
WIRE 336 64 336 -96
WIRE 336 192 160 192
WIRE 336 192 336 160
WIRE 336 256 160 256
WIRE 336 288 336 256
WIRE 336 544 160 544
WIRE 336 544 336 384
WIRE 352 32 256 32
WIRE 352 448 256 448
WIRE 448 176 -16 176
WIRE 448 176 448 0
WIRE 448 224 16 224
WIRE 448 448 448 224
WIRE 464 208 -16 208
WIRE 464 208 464 128
WIRE 464 240 64 240
WIRE 464 320 464 240
WIRE 480 -32 240 -32
WIRE 480 96 480 -32
WIRE 480 480 240 480
WIRE 480 480 480 352
WIRE 496 -64 464 -64
WIRE 496 -32 480 -32
WIRE 496 0 448 0
WIRE 496 448 448 448
WIRE 496 480 480 480
WIRE 496 512 480 512
WIRE 560 -96 336 -96
WIRE 560 -80 560 -96
WIRE 560 48 560 16
WIRE 560 192 336 192
WIRE 560 192 560 48
WIRE 560 256 336 256
WIRE 560 256 560 192
WIRE 560 432 560 256
WIRE 560 544 336 544
WIRE 560 544 560 528
WIRE 592 48 560 48
WIRE 656 64 656 48
WIRE 656 416 656 384
WIRE 672 64 656 64
WIRE 672 96 480 96
WIRE 672 128 464 128
WIRE 672 320 464 320
WIRE 672 352 480 352
WIRE 672 384 656 384
WIRE 688 544 560 544
WIRE 736 -96 560 -96
WIRE 736 48 736 -96
WIRE 736 192 560 192
WIRE 736 192 736 144
WIRE 736 256 560 256
WIRE 736 304 736 256
WIRE 736 544 688 544
WIRE 736 544 736 400
FLAG 80 -48 IO0
IOPIN 80 -48 BiDir
FLAG 464 -64 IO2
IOPIN 464 -64 BiDir
FLAG 656 48 IO3
IOPIN 656 48 BiDir
FLAG 656 416 IO7
IOPIN 656 416 BiDir
FLAG 480 512 IO6
IOPIN 480 512 BiDir
FLAG 352 448 IO5
IOPIN 352 448 BiDir
FLAG 64 496 IO4
IOPIN 64 496 BiDir
FLAG -80 464 IOC
IOPIN -80 464 BiDir
FLAG -128 -96 V+
FLAG 352 32 IO1
IOPIN 352 32 BiDir
FLAG -16 112 Y0
FLAG -16 144 Y1
FLAG -16 176 Y2
FLAG -16 208 Y3
FLAG -16 240 Y4
FLAG -16 272 Y5
FLAG -16 304 Y6
FLAG -16 336 Y7
FLAG -208 128 A
FLAG -208 192 B
FLAG -208 256 C
FLAG -208 320 INH
FLAG -240 448 Vss
FLAG -272 432 Vee
FLAG 688 544 V+
FLAG 592 48 Vee
SYMBOL Robertugo\\switchana 160 -16 R0
SYMATTR InstName U2
SYMATTR SpiceModel 4066
SYMBOL Robertugo\\switchana 336 112 R0
SYMATTR InstName U3
SYMATTR SpiceModel 4066
SYMBOL Robertugo\\switchana 560 -32 R0
SYMATTR InstName U4
SYMATTR SpiceModel 4066
SYMBOL Robertugo\\switchana 736 96 R0
SYMATTR InstName U5
SYMATTR SpiceModel 4066
SYMBOL Robertugo\\switchana 160 464 M180
SYMATTR InstName U6
SYMATTR SpiceModel 4066
SYMBOL Robertugo\\switchana 336 336 M180
SYMATTR InstName U7
SYMATTR SpiceModel 4066
SYMBOL Robertugo\\switchana 560 480 M180
SYMATTR InstName U8
SYMATTR SpiceModel 4066
SYMBOL Robertugo\\switchana 736 352 M180
SYMATTR InstName U9
SYMATTR SpiceModel 4066
SYMBOL Robertugo\\3to8l -128 48 R0
SYMATTR InstName U1
SYMATTR SpiceLine VDD={Vcc}  SPEED=1.0  TRIPDT=5e-9
TEXT -184 -32 Left 0 !.option noopiter
TEXT 24 -16 Left 0 ;13
TEXT 376 0 Left 0 ;14
TEXT 344 -56 Left 0 ;15
TEXT 696 8 Left 0 ;12
TEXT 376 512 Left 0 ;2
TEXT 24 536 Left 0 ;1
TEXT -112 504 Left 0 ;3
TEXT 384 416 Left 0 ;5
TEXT 688 456 Left 0 ;4
TEXT -200 112 Left 0 ;11
TEXT -200 176 Left 0 ;10
TEXT -192 240 Left 0 ;9
TEXT -208 304 Left 0 ;6
TEXT -224 440 Left 0 ;8
TEXT -296 448 Left 0 ;7
