Version 4
SHEET 1 1612 680
WIRE -112 112 -112 80
WIRE -16 112 -16 80
WIRE 208 48 128 48
WIRE 208 112 128 112
WIRE 416 80 368 80
FLAG -112 192 0
FLAG -112 80 x
FLAG -16 192 0
FLAG -16 80 y
FLAG 128 48 x
IOPIN 128 48 In
FLAG 128 112 y
IOPIN 128 112 In
FLAG 416 80 Flux
IOPIN 416 80 Out
SYMBOL voltage -112 96 R0
SYMATTR InstName VX
SYMATTR Value 0
SYMBOL voltage -16 96 R0
WINDOW 123 0 0 Left 0
WINDOW 39 0 0 Left 0
SYMATTR InstName VY
SYMATTR Value {theta}
SYMBOL 2D_Interpolation_Flux 288 80 R0
SYMATTR InstName X1
TEXT -154 -158 Left 0 !.dc VX 0 18 1
TEXT -160 -80 Left 0 !.step param theta 0 30 2\n;datapoints\n;.step param theta list 0 12 24 30
TEXT -136 -200 Left 0 ;Test linear Magnetic Flux Interpolation (I,theta)
TEXT -154 -116 Left 0 ;.dc VX list 0 5 10 15 18
TEXT 104 -120 Left 0 ;datapoints
