.SUBCKT VARICAP 1 2 CTRL
R1 1 3 1µ
VC 3 4 0
EC 4 2 VALUE={(1/(V(CTRL)+0.001f))*V(INT)}
GINT 0 INT VALUE={I(VC)}
CINT INT 0 1 IC=0
RINT INT 0 1G
.ENDS