Version 4
SHEET 1 1356 680
WIRE -144 -128 -304 -128
WIRE 64 -128 -144 -128
WIRE 432 -128 416 -128
WIRE 848 -128 512 -128
WIRE 944 -128 864 -128
WIRE 832 -112 560 -112
WIRE 944 -112 944 -128
WIRE 592 -96 544 -96
WIRE 832 -96 832 -112
WIRE 832 -96 816 -96
WIRE -304 -80 -304 -128
WIRE -304 -80 -368 -80
WIRE -256 -80 -304 -80
WIRE -144 -80 -176 -80
WIRE 416 -80 416 -128
WIRE 416 -80 16 -80
WIRE 560 -80 560 -112
WIRE 560 -80 416 -80
WIRE 848 -80 848 -128
WIRE 912 -80 848 -80
WIRE 1024 -80 976 -80
WIRE -368 -48 -368 -80
WIRE 128 -48 48 -48
WIRE 464 -48 208 -48
WIRE 528 -48 464 -48
WIRE 1024 -48 1024 -80
WIRE 576 -32 496 -32
WIRE 592 -32 576 -32
WIRE 864 -32 864 -128
WIRE 864 -32 816 -32
WIRE -304 -16 -304 -80
WIRE 864 -16 864 -32
WIRE -144 0 -160 0
WIRE 48 0 48 -48
WIRE 48 0 16 0
WIRE 64 0 64 -128
WIRE 80 0 64 0
WIRE 176 0 160 0
WIRE 256 0 240 0
WIRE 288 0 256 0
WIRE 384 0 352 0
WIRE 400 0 384 0
WIRE 416 0 416 -80
WIRE 416 0 400 0
WIRE 64 32 64 0
WIRE 256 32 256 0
WIRE 384 32 384 0
WIRE 528 32 528 -48
WIRE 592 32 528 32
WIRE 832 32 816 32
WIRE -160 48 -160 0
WIRE -160 48 -256 48
WIRE 496 48 496 -32
WIRE 416 64 416 0
WIRE -368 80 -368 32
WIRE 832 80 832 32
WIRE 864 80 864 48
WIRE 864 80 832 80
WIRE 928 80 864 80
WIRE 1024 80 1024 32
WIRE 1024 80 992 80
WIRE 560 96 560 -80
WIRE 592 96 560 96
WIRE 880 96 816 96
WIRE 256 128 256 96
WIRE 304 128 256 128
WIRE 576 128 576 -32
WIRE 832 128 832 80
WIRE 832 128 576 128
WIRE 304 144 304 128
WIRE -368 160 -368 144
WIRE -304 160 -304 48
WIRE -304 160 -368 160
WIRE -224 160 -304 160
WIRE -144 160 -224 160
WIRE 64 160 64 112
WIRE 64 160 -64 160
WIRE 256 160 256 128
WIRE 256 160 64 160
WIRE 384 160 384 96
WIRE 384 160 256 160
WIRE 416 160 416 128
WIRE 416 160 384 160
WIRE 496 160 496 112
WIRE 496 160 416 160
WIRE 544 160 544 -96
WIRE 544 160 496 160
WIRE 880 160 544 160
FLAG 304 144 0
FLAG 464 -48 Out555
IOPIN 464 -48 Out
FLAG -144 -128 Fase
FLAG -224 160 Carga
FLAG 400 0 +V
SYMBOL voltage 64 16 R0
WINDOW 3 14 98 Left 0
WINDOW 123 0 0 Left 0
WINDOW 39 0 0 Left 0
WINDOW 0 -17 58 Left 0
SYMATTR Value SINE(0 315 50)
SYMATTR InstName Vac
SYMBOL zener 240 96 M180
WINDOW 3 24 0 Invisible 0
WINDOW 0 -57 35 Left 0
SYMATTR Value BZX84C12L
SYMATTR InstName Dz12
SYMBOL diode 288 16 R270
WINDOW 0 41 28 VTop 0
WINDOW 3 -4 25 VBottom 0
SYMATTR InstName Dr
SYMATTR Value 1N914
SYMBOL polcap 368 32 R0
WINDOW 0 -35 32 Left 0
WINDOW 3 -49 62 Left 0
SYMATTR InstName Cf
SYMATTR Value 220µ
SYMATTR Description Capacitor
SYMATTR Type cap
SYMATTR SpiceLine V=16 Irms=460m Rser=0.16 MTBF=3000 Lser=0 mfg="Nichicon" pn="UPL1C221MPH" type="Al electrolytic" ppPkg=1
SYMBOL Robertugo\\555_ALL 752 16 R0
WINDOW 38 -75 81 Left 0
WINDOW 0 -62 -81 Left 0
SYMATTR InstName U1
SYMBOL Robertugo\\Pote 1008 -96 R90
WINDOW 123 48 57 VCenter 0
WINDOW 0 33 102 VRight 0
WINDOW 3 -25 -19 VRight 0
SYMATTR Value2 Set={.5}
SYMATTR InstName U2
SYMATTR Value Rt=6e6
SYMBOL res 416 -112 R270
WINDOW 0 16 3 VTop 0
WINDOW 3 0 56 VBottom 0
SYMATTR InstName Ron
SYMATTR Value 1.8e6
SYMBOL cap 864 96 R0
WINDOW 0 21 8 Left 0
WINDOW 3 26 56 Left 0
SYMATTR InstName Cbp
SYMATTR Value 10n
SYMBOL diode 848 -16 R0
WINDOW 0 41 0 Left 0
WINDOW 3 43 30 Left 0
SYMATTR InstName Don
SYMATTR Value 1N914
SYMBOL diode 928 96 R270
WINDOW 0 22 -21 VTop 0
WINDOW 3 61 35 VBottom 0
SYMATTR InstName Doff
SYMATTR Value 1N914
SYMBOL res 1040 48 R180
WINDOW 0 36 76 Left 0
WINDOW 3 36 52 Left 0
SYMATTR InstName Roff
SYMATTR Value 1.8e6
SYMBOL polcap 512 48 M0
WINDOW 3 -28 59 Left 0
WINDOW 0 -26 15 Left 0
SYMATTR Value 47n
SYMATTR InstName Ct
SYMATTR Description Capacitor
SYMATTR Type cap
SYMATTR SpiceLine V=16 Irms=825m Rser=0.084 MTBF=6000 Lser=0 mfg="United Chemi-Con" pn="LXF16VB471M10X16LL" type="Al electrolytic" ppPkg=1
SYMBOL Triac_All -272 -16 M0
WINDOW 0 28 0 Right 0
WINDOW 38 14 165 VLeft 0
SYMATTR InstName U4
SYMATTR SpiceModel L6008L6
SYMBOL ind -160 176 R270
WINDOW 0 32 56 VTop 0
WINDOW 3 42 136 VBottom 0
SYMATTR InstName LMotor
SYMATTR Value 125mH
SYMATTR SpiceLine Ipk=15 Rser=30 Rpar=45000 Cpar=220p
SYMBOL res -160 -96 R90
WINDOW 0 0 56 VBottom 0
WINDOW 3 32 56 VTop 0
SYMATTR InstName R3
SYMATTR Value 47
SYMBOL res 224 -64 R90
WINDOW 0 15 120 VBottom 0
WINDOW 3 -11 -3 VTop 0
SYMATTR InstName R1/4W
SYMATTR Value 470
SYMBOL OptoElec\\led_triac -32 -64 M0
WINDOW 38 30 112 Center 0
WINDOW 0 32 -21 Center 0
SYMATTR InstName U3
SYMBOL cap 240 -16 R90
WINDOW 0 16 68 VBottom 0
WINDOW 3 -9 8 VTop 0
SYMATTR InstName Cxc
SYMATTR Value 1µ
SYMBOL res 176 -16 R90
WINDOW 0 0 56 VBottom 0
WINDOW 3 32 56 VTop 0
SYMATTR InstName Rs
SYMATTR Value 47
SYMBOL res -384 -64 R0
WINDOW 0 21 9 Left 0
WINDOW 3 41 48 Left 0
SYMATTR InstName Rsn
SYMATTR Value 39
SYMBOL cap -384 80 R0
SYMATTR InstName Csn
SYMATTR Value 10n
SYMBOL cap 400 64 R0
SYMATTR InstName Cf1
SYMATTR Value 100n
TEXT 184 88 Left 0 ;1/4w
TEXT -320 -144 Left 0 !.tran 1
TEXT 872 -96 Left 0 ;Ron
TEXT 976 -96 Left 0 ;Roff
TEXT 552 144 Left 0 ;Ct=500u
TEXT -104 80 Left 0 ;Moc3041
TEXT 24 -104 Left 0 ;1
TEXT 24 -16 Left 0 ;2
TEXT -168 -104 Left 0 ;6
TEXT -168 -16 Left 0 ;4
TEXT -384 192 Left 0 ;Rsn y Csn opcionales.Tiempos reales medidos con: Pote min:Toff=59', Ton=13'. Pote max: Toff=15' y Ton=53'. Pote med: Toff=43' y Ton\n=34'. Ct debe probarse con el tester en el rango de 20 Meg de resistencia, elegir uno que no marque pérdidas. Puede ponerse un Led\nentre Rlim y Out555, bajar entonces Rlim.Para ensayar con el Moc 3020 cambiar LMotor por una RL=55 Ohms. Llavear entre +Vac y Rs.
