Version 4
SHEET 1 880 680
WIRE -496 -96 -512 -96
WIRE -336 -64 -368 -64
WIRE 32 -64 0 -64
WIRE 400 -64 368 -64
WIRE -512 -48 -512 -96
WIRE -192 -48 -224 -48
WIRE 176 -48 144 -48
WIRE 544 -48 512 -48
WIRE -368 -32 -368 -64
WIRE -336 -32 -368 -32
WIRE 0 -32 0 -64
WIRE 32 -32 0 -32
WIRE 368 -32 368 -64
WIRE 400 -32 368 -32
WIRE -368 32 -368 -32
WIRE 0 32 0 -32
WIRE 368 32 368 -32
WIRE -512 80 -512 32
WIRE -352 80 -368 80
WIRE 16 80 0 80
WIRE 384 80 368 80
WIRE -368 144 -368 80
WIRE -336 144 -368 144
WIRE 0 144 0 80
WIRE 32 144 0 144
WIRE 368 144 368 80
WIRE 400 144 368 144
WIRE -192 160 -224 160
WIRE 176 160 144 160
WIRE 544 160 512 160
WIRE -336 176 -368 176
WIRE 32 176 0 176
WIRE 400 176 368 176
WIRE -368 240 -368 176
WIRE 0 240 0 176
WIRE 368 240 368 176
WIRE -336 288 -368 288
WIRE 32 288 0 288
WIRE 400 288 368 288
WIRE -336 304 -336 288
WIRE 32 304 32 288
WIRE 400 304 400 288
WIRE -368 352 -368 288
WIRE -336 352 -368 352
WIRE 0 352 0 288
WIRE 32 352 0 352
WIRE 368 352 368 288
WIRE 400 352 368 352
WIRE -192 368 -224 368
WIRE 176 368 144 368
WIRE 544 368 512 368
WIRE -336 384 -368 384
WIRE 32 384 0 384
WIRE 400 384 368 384
WIRE -368 464 -368 384
WIRE -352 464 -368 464
WIRE 0 464 0 384
WIRE 16 464 0 464
WIRE 368 464 368 384
WIRE 384 464 368 464
WIRE -352 496 -368 496
WIRE 16 496 0 496
WIRE 384 496 368 496
WIRE -368 560 -368 496
WIRE -336 560 -368 560
WIRE 0 560 0 496
WIRE 32 560 0 560
WIRE 368 560 368 496
WIRE 400 560 368 560
WIRE -192 576 -224 576
WIRE 176 576 144 576
WIRE 544 576 512 576
WIRE -368 592 -368 560
WIRE -336 592 -368 592
WIRE 0 592 0 560
WIRE 32 592 0 592
WIRE 368 592 368 560
WIRE 400 592 368 592
FLAG -512 80 0
FLAG -496 -96 VCC
FLAG -368 32 0
FLAG -192 -48 U1A_Out_00
FLAG -368 240 0
FLAG -352 80 VCC
FLAG -192 160 U1B_Out_01
FLAG -336 304 0
FLAG -352 464 VCC
FLAG -192 368 U1C_Out_10
FLAG -352 496 VCC
FLAG -192 576 U1D_Out_11
FLAG 0 32 0
FLAG 176 -48 U2A_Out_00
FLAG 0 240 0
FLAG 16 80 VCC
FLAG 176 160 U2B_Out_01
FLAG 32 304 0
FLAG 16 464 VCC
FLAG 176 368 U2C_Out_10
FLAG 16 496 VCC
FLAG 176 576 U2D_Out_11
FLAG 368 32 0
FLAG 544 -48 U3A_Out_00
FLAG 368 240 0
FLAG 384 80 VCC
FLAG 544 160 U3B_Out_01
FLAG 400 304 0
FLAG 384 464 VCC
FLAG 544 368 U3C_Out_10
FLAG 384 496 VCC
FLAG 544 576 U3D_Out_11
SYMBOL Digital\\74HC\\74hc08 -288 -112 R0
SYMATTR InstName U1A
SYMBOL Digital\\74HC\\74hc08 -288 96 R0
SYMATTR InstName U1B
SYMBOL Digital\\74HC\\74hc08 -288 304 R0
SYMATTR InstName U1C
SYMBOL Digital\\74HC\\74hc08 -288 512 R0
SYMATTR InstName U1D
SYMBOL voltage -512 -64 R0
WINDOW 123 0 0 Left 0
WINDOW 39 0 0 Left 0
SYMATTR InstName V1
SYMATTR Value 5VDC
SYMBOL Digital\\74HC\\74hc00 80 -112 R0
SYMATTR InstName U2A
SYMBOL Digital\\74HC\\74hc00 80 96 R0
SYMATTR InstName U2B
SYMBOL Digital\\74HC\\74hc00 80 304 R0
SYMATTR InstName U2C
SYMBOL Digital\\74HC\\74hc00 80 512 R0
SYMATTR InstName U2D
SYMBOL Digital\\74HC\\74hc86 448 -112 R0
SYMATTR InstName U3A
SYMBOL Digital\\74HC\\74hc86 448 96 R0
SYMATTR InstName U3B
SYMBOL Digital\\74HC\\74hc86 448 304 R0
SYMATTR InstName U3C
SYMBOL Digital\\74HC\\74hc86 448 512 R0
SYMATTR InstName U3D
TEXT -378 -148 Left 0 !.op
TEXT -376 -184 Left 0 !.INCLUDE 74hc.lib.
