* P-SPICE subcircuit generated by EMtoSPICE

.subckt BFG196_EM.MDL 2 1 ref
Rs1 1 n1s1 1.e-003
Rs2 2 n2s1 1.e-003
e1_1 n1s1 n1s2 LAPLACE {V(1) - V(ref)} = {(
+ (8.3739071e-004) +
+ (-2.9123959e-010)*s^1 +
+ (3.3338445e-020)*s^2 +
+ (-1.4824562e-030)*s^3 +
+ (3.294291e-041)*s^4) / (
+ (6.6056051e-002) +
+ (3.9945007e-010)*s^1 +
+ (-3.4064139e-021)*s^2 +
+ (-1.948061e-031)*s^3 +
+ (2.9461308e-041)*s^4 +
+ (3.1162811e-052)*s^5)}
e1_2 n1s2 n1s3 LAPLACE {V(1) - V(n1s1)} = {(
+ (3344.6721) +
+ (5.4105241e-006)*s^1 +
+ (1.4966016e-015)*s^2 +
+ (-8.3863115e-026)*s^3 +
+ (3.1202109e-036)*s^4 +
+ (1.5581405e-047)*s^5) / (
+ (6.6056051e-002) +
+ (3.9945007e-010)*s^1 +
+ (-3.4064139e-021)*s^2 +
+ (-1.948061e-031)*s^3 +
+ (2.9461308e-041)*s^4 +
+ (3.1162811e-052)*s^5)}
e1_3 n1s3 n1s4 LAPLACE {V(2) - V(ref)} = {(
+ (-2.1840289e-003) +
+ (-5.8022382e-012)*s^1 +
+ (-1.4343303e-022)*s^2 +
+ (-1.1752336e-032)*s^3 +
+ (6.2323595e-044)*s^4) / (
+ (-0.21148421) +
+ (-2.572023e-011)*s^1 +
+ (-1.4733294e-021)*s^2 +
+ (-6.5775022e-032)*s^3 +
+ (-1.2057254e-042)*s^4 +
+ (-1.8607152e-053)*s^5)}
e1_4 n1s4 ref LAPLACE {V(2) - V(n2s1)} = {(
+ (-109.20144) +
+ (-2.9011191e-007)*s^1 +
+ (-7.1716516e-018)*s^2 +
+ (-5.8761682e-028)*s^3 +
+ (3.1161798e-039)*s^4) / (
+ (-0.21148421) +
+ (-2.572023e-011)*s^1 +
+ (-1.4733294e-021)*s^2 +
+ (-6.5775022e-032)*s^3 +
+ (-1.2057254e-042)*s^4 +
+ (-1.8607152e-053)*s^5)}
e2_1 n2s1 n2s2 LAPLACE {V(1) - V(ref)} = {(
+ (0.80956212) +
+ (-6.0756138e-011)*s^1 +
+ (7.6571291e-022)*s^2) / (
+ (-1.1442569e-002) +
+ (-7.3966523e-011)*s^1 +
+ (-3.2710566e-021)*s^2 +
+ (-1.1931629e-032)*s^3)}
e2_2 n2s2 n2s3 LAPLACE {V(1) - V(n1s1)} = {(
+ (40478.106) +
+ (-3.0378069e-006)*s^1 +
+ (3.8285646e-017)*s^2) / (
+ (-1.1442569e-002) +
+ (-7.3966523e-011)*s^1 +
+ (-3.2710566e-021)*s^2 +
+ (-1.1931629e-032)*s^3)}
e2_3 n2s3 n2s4 LAPLACE {V(2) - V(ref)} = {(
+ (1.2915819e-005) +
+ (-4.7369922e-014)*s^1 +
+ (-8.0703661e-026)*s^2 +
+ (1.2408617e-034)*s^3 +
+ (2.0313316e-046)*s^4) / (
+ (2.0371693e-005) +
+ (1.2565902e-013)*s^1 +
+ (1.0832089e-023)*s^2 +
+ (3.8668395e-034)*s^3 +
+ (6.1286425e-045)*s^4 +
+ (6.6869164e-056)*s^5)}
e2_4 n2s4 ref LAPLACE {V(2) - V(n2s1)} = {(
+ (1.6643756) +
+ (3.9144547e-009)*s^1 +
+ (5.3756929e-019)*s^2 +
+ (2.5538506e-029)*s^3 +
+ (3.1658878e-040)*s^4 +
+ (3.3434582e-051)*s^5) / (
+ (2.0371693e-005) +
+ (1.2565902e-013)*s^1 +
+ (1.0832089e-023)*s^2 +
+ (3.8668395e-034)*s^3 +
+ (6.1286425e-045)*s^4 +
+ (6.6869164e-056)*s^5)}
.ends BFG196
