Version 4
SHEET 1 1992 3388
WIRE -496 464 -576 464
WIRE -112 464 -496 464
WIRE -496 496 -496 464
WIRE -112 496 -112 464
WIRE -576 608 -576 464
WIRE -496 608 -496 576
WIRE -288 608 -496 608
WIRE -112 608 -112 576
WIRE -112 608 -240 608
WIRE -288 624 -288 608
WIRE -496 640 -496 608
WIRE -240 640 -240 608
WIRE -112 640 -112 608
WIRE -576 736 -576 688
WIRE -544 736 -576 736
WIRE -544 752 -544 736
WIRE -496 752 -496 704
WIRE -432 752 -496 752
WIRE -288 752 -288 720
WIRE -288 752 -352 752
WIRE -256 752 -288 752
WIRE -576 784 -576 736
WIRE -496 784 -496 752
WIRE -496 784 -576 784
WIRE -112 784 -112 720
WIRE -112 784 -496 784
FLAG -544 752 0
FLAG -256 752 Trigger
IOPIN -256 752 Out
SYMBOL voltage -576 592 R0
WINDOW 123 0 0 Left 0
WINDOW 39 0 0 Left 0
WINDOW 0 22 16 Left 0
WINDOW 3 -16 56 Left 0
SYMATTR InstName V1
SYMATTR Value 12
SYMBOL res -448 768 R270
WINDOW 0 15 7 VTop 0
WINDOW 3 43 102 VBottom 0
SYMATTR InstName RT
SYMATTR Value 100
SYMBOL res -512 480 R0
SYMATTR InstName R6
SYMATTR Value 100k
SYMBOL cap -512 640 R0
SYMATTR InstName C1
SYMATTR Value .1µ
SYMBOL res -128 624 R0
WINDOW 0 -44 28 Left 0
WINDOW 3 -38 63 Left 0
SYMATTR InstName R7
SYMATTR Value 80k
SYMBOL res -128 480 R0
WINDOW 0 -36 31 Left 0
WINDOW 3 -35 62 Left 0
SYMATTR InstName R8
SYMATTR Value 40k
SYMBOL Miscel\\ujtp -336 624 R0
SYMATTR InstName Put
SYMATTR SpiceModel 6027
TEXT -408 536 Left 0 !.Tran 0 100m 0 .01m
TEXT -408 576 Left 0 !.options plotwinsize=0
