Version 4
SHEET 1 2732 1316
WIRE -272 -128 -352 -128
WIRE -240 -128 -272 -128
WIRE -352 -96 -352 -128
WIRE 192 -96 128 -96
WIRE 368 -96 192 -96
WIRE 128 -32 128 -96
WIRE 368 -16 368 -96
WIRE -352 48 -352 -16
WIRE -272 96 -352 96
WIRE -240 96 -272 96
WIRE 128 112 128 48
WIRE -352 128 -352 96
WIRE 560 144 464 144
WIRE -352 272 -352 208
WIRE -272 304 -352 304
WIRE -240 304 -272 304
WIRE -352 336 -352 304
WIRE -352 480 -352 416
WIRE -272 528 -352 528
WIRE -240 528 -272 528
WIRE -352 560 -352 528
WIRE -352 704 -352 640
FLAG -352 48 0
FLAG -272 -128 B3
FLAG -352 272 0
FLAG -272 96 B2
FLAG -352 480 0
FLAG -272 304 B1
FLAG -352 704 0
FLAG -272 528 B0
FLAG 128 112 0
FLAG 192 -96 VDD
FLAG 560 144 Vout
FLAG 352 304 VDD
FLAG 384 304 0
FLAG 272 32 B7
FLAG 272 64 B6
FLAG 272 96 B5
FLAG 272 128 B4
FLAG 272 160 B3
FLAG 272 192 B2
FLAG 272 224 B1
FLAG 272 256 B0
SYMBOL voltage -352 -112 R0
WINDOW 0 36 42 Left 0
WINDOW 3 35 69 Left 0
WINDOW 123 0 0 Left 0
WINDOW 39 0 0 Left 0
SYMATTR InstName Vb3
SYMATTR Value pulse 1.5 0 0 200p 200p 79.8n   160n
SYMBOL voltage -352 112 R0
WINDOW 0 36 42 Left 0
WINDOW 3 35 69 Left 0
WINDOW 123 0 0 Left 0
WINDOW 39 0 0 Left 0
SYMATTR InstName Vb2
SYMATTR Value pulse 1.5 0 0 200p 200p 39.8n   80n
SYMBOL voltage -352 320 R0
WINDOW 0 36 42 Left 0
WINDOW 3 35 69 Left 0
WINDOW 123 0 0 Left 0
WINDOW 39 0 0 Left 0
SYMATTR InstName Vb1
SYMATTR Value pulse 1.5 0 0 200p 200p 19.8n   40n
SYMBOL voltage -352 544 R0
WINDOW 0 36 42 Left 0
WINDOW 3 35 69 Left 0
WINDOW 123 0 0 Left 0
WINDOW 39 0 0 Left 0
SYMATTR InstName Vb0
SYMATTR Value pulse 1.5 0 0 200p 200p 9.8n    20n
SYMBOL voltage 128 -48 R0
WINDOW 123 0 0 Left 0
WINDOW 39 0 0 Left 0
SYMATTR InstName VDD
SYMATTR Value 1.5
SYMBOL Ideal_8_bit_DAC 288 288 R0
SYMATTR InstName U1
TEXT 272 392 Left 0 !.tran 0 .3u 0 .1n uic
TEXT 16 480 Left 0 ;The following files must be in the same directory:\nIdeal_8_bit_DAC.asy\nIdeal_8_bit_DAC.asc
