Version 4
SHEET 1 920 716
WIRE 112 224 48 224
WIRE 656 224 208 224
WIRE 688 224 656 224
WIRE 832 224 768 224
WIRE 48 304 48 224
WIRE 64 304 48 304
WIRE 160 304 160 288
WIRE 160 304 144 304
WIRE 272 304 160 304
WIRE 496 304 400 304
WIRE 608 304 576 304
WIRE 704 304 608 304
WIRE 752 304 704 304
WIRE 832 304 832 224
WIRE 832 304 752 304
WIRE 704 352 704 304
WIRE 336 432 336 352
WIRE 336 432 240 432
WIRE 496 432 336 432
WIRE 608 432 608 304
WIRE 608 432 576 432
WIRE 48 480 48 304
WIRE 240 480 240 432
WIRE 336 480 336 432
WIRE 752 480 752 304
WIRE 304 512 288 512
WIRE 480 512 448 512
WIRE 656 512 656 224
WIRE 656 512 544 512
WIRE 240 560 240 544
WIRE 288 560 288 512
WIRE 288 560 240 560
WIRE 336 560 336 544
WIRE 336 560 288 560
WIRE 448 560 448 512
WIRE 448 560 336 560
WIRE 480 560 448 560
WIRE 656 560 656 512
WIRE 656 560 560 560
WIRE 336 592 336 560
WIRE 656 592 656 560
WIRE 832 592 832 304
WIRE 48 640 48 560
WIRE 80 640 48 640
WIRE 80 656 80 640
WIRE 48 688 48 640
WIRE 336 688 336 672
WIRE 336 688 48 688
WIRE 656 688 656 656
WIRE 656 688 336 688
WIRE 752 688 752 560
WIRE 752 688 656 688
WIRE 832 688 832 656
WIRE 832 688 752 688
FLAG 80 656 0
FLAG 704 352 Out
IOPIN 704 352 Out
SYMBOL reg3all 400 320 R0
SYMATTR InstName U1
SYMATTR SpiceModel LM317Psp
SYMBOL pnp2 208 288 M270
WINDOW 0 34 63 VLeft 0
WINDOW 3 62 81 VLeft 0
SYMATTR InstName Q1
SYMATTR Value BD440
SYMBOL res 160 288 R90
WINDOW 0 58 91 VBottom 0
WINDOW 3 32 46 VTop 0
SYMATTR InstName R1
SYMATTR Value 22
SYMATTR SpiceLine tol=1 pwr=0.1
SYMBOL res 592 288 R90
WINDOW 0 58 91 VBottom 0
WINDOW 3 32 46 VTop 0
SYMATTR InstName R2
SYMATTR Value 0.22
SYMATTR SpiceLine tol=1 pwr=0.1
SYMBOL res 592 416 R90
WINDOW 0 58 91 VBottom 0
WINDOW 3 32 46 VTop 0
SYMATTR InstName R3
SYMATTR Value 220
SYMATTR SpiceLine tol=1 pwr=0.1
SYMBOL Pote 320 576 M180
WINDOW 0 41 115 Left 0
WINDOW 123 76 90 Center 0
WINDOW 3 75 66 Center 0
SYMATTR InstName Uadj
SYMATTR Value Rt=5k
SYMBOL cap 224 480 R0
WINDOW 3 19 62 Left 0
SYMATTR Value 10n
SYMATTR InstName C1
SYMBOL res 576 544 R90
WINDOW 0 58 91 VBottom 0
WINDOW 3 32 46 VTop 0
SYMATTR InstName R4
SYMATTR Value 18K
SYMATTR SpiceLine tol=1 pwr=0.1
SYMBOL cap 544 496 R90
WINDOW 0 44 62 VBottom 0
WINDOW 3 16 -9 VTop 0
SYMATTR InstName C2
SYMATTR Value 270p
SYMBOL res 320 576 R0
WINDOW 0 37 45 Left 0
SYMATTR InstName R5
SYMATTR Value 100
SYMATTR SpiceLine tol=1 pwr=0.1
SYMBOL diode 672 656 R180
WINDOW 0 24 72 Left 0
WINDOW 3 24 0 Left 0
SYMATTR InstName D1
SYMATTR Value MURS320
SYMBOL polcap 816 592 R0
WINDOW 0 -37 33 Left 0
WINDOW 3 -33 68 Left 0
SYMATTR InstName C3
SYMATTR Value 1m
SYMATTR Description Capacitor
SYMATTR Type cap
SYMATTR SpiceLine V=25 Irms=1.69 Rser=0.034 MTBF=2000 Lser=0 mfg="Panasonic" pn="ECA1EFQ102" type="Al electrolytic" ppPkg=1
SYMBOL res 736 464 R0
WINDOW 0 44 48 Left 0
WINDOW 3 40 85 Left 0
SYMATTR InstName RL
SYMATTR Value 5
SYMATTR SpiceLine tol=1 pwr=0.1
SYMBOL voltage 48 464 R0
WINDOW 3 -13 60 Left 0
WINDOW 123 0 0 Left 0
WINDOW 39 8 120 Left 0
SYMATTR Value 35
SYMATTR SpiceLine Rser=1m Cpar=47u
SYMATTR InstName V1
SYMBOL ind 672 240 R270
WINDOW 0 -22 21 VTop 0
WINDOW 3 5 74 VBottom 0
SYMATTR InstName L1
SYMATTR Value 600u
SYMATTR SpiceLine Rser=0.1 Rpar=3K3 Cpar=5p
TEXT 128 672 Left 0 !.tran 0 3m 1m
