Version 4
SHEET 1 880 680
WIRE -160 96 -256 96
WIRE -128 96 -160 96
WIRE -64 96 -128 96
WIRE 240 96 -64 96
WIRE 528 96 240 96
WIRE -64 112 -64 96
WIRE 240 112 240 96
WIRE 64 128 48 128
WIRE 160 128 144 128
WIRE -256 144 -256 96
WIRE -160 144 -160 96
WIRE 160 160 160 128
WIRE 176 160 160 160
WIRE 48 192 48 128
WIRE 64 192 48 192
WIRE 192 192 144 192
WIRE 608 208 560 208
WIRE -256 224 -256 208
WIRE -256 224 -352 224
WIRE -128 224 -128 96
WIRE 528 224 528 96
WIRE 560 224 560 208
WIRE -160 256 -160 208
WIRE -160 256 -352 256
WIRE -64 256 -64 192
WIRE 80 256 -64 256
WIRE 112 256 80 256
WIRE 192 256 192 192
WIRE 192 256 176 256
WIRE 240 256 240 208
WIRE 240 256 192 256
WIRE 272 256 240 256
WIRE 384 256 352 256
WIRE 464 256 448 256
WIRE 608 256 608 208
WIRE 80 272 80 256
WIRE 464 272 464 256
WIRE -256 288 -256 224
WIRE -160 288 -160 256
WIRE 240 288 240 256
WIRE -64 304 -64 256
WIRE -16 336 -32 336
WIRE 80 336 64 336
WIRE 176 336 80 336
WIRE 464 368 464 352
WIRE 528 368 528 352
WIRE 528 368 464 368
WIRE 560 368 560 352
WIRE 608 368 608 320
WIRE 608 368 560 368
WIRE -32 384 -32 336
WIRE 64 384 -32 384
WIRE 160 384 144 384
WIRE -256 400 -256 352
WIRE -160 400 -160 352
WIRE -160 400 -256 400
WIRE -128 400 -128 288
WIRE -128 400 -160 400
WIRE -64 400 -64 368
WIRE -64 400 -128 400
WIRE 160 400 160 384
WIRE 160 400 -64 400
WIRE 240 400 240 384
WIRE 240 400 160 400
SYMBOL npn2 176 112 R0
SYMATTR InstName Q1
SYMBOL npn2 176 288 R0
SYMATTR InstName Q2
SYMBOL res -80 96 R0
SYMATTR InstName R1
SYMBOL polcap -144 224 R0
WINDOW 3 24 64 Left 0
SYMATTR InstName C1
SYMATTR Description Capacitor
SYMATTR Type cap
SYMATTR SpiceLine V=400 Irms=100m Rser=4 MTBF=1000 Lser=0 ppPkg=1
SYMBOL cap -80 304 R0
SYMATTR InstName C2
SYMBOL Misc\\DIAC 48 272 R0
WINDOW 0 38 5 Left 0
WINDOW 3 70 40 Left 0
SYMATTR InstName U1
SYMBOL res 160 112 R90
WINDOW 0 15 107 VBottom 0
WINDOW 3 -13 19 VTop 0
SYMATTR InstName R2
SYMBOL res 80 320 R90
WINDOW 0 0 56 VBottom 0
WINDOW 3 32 56 VTop 0
SYMATTR InstName R3
SYMBOL diode 112 272 R270
WINDOW 0 32 32 VTop 0
WINDOW 3 0 32 VBottom 0
SYMATTR InstName D5
SYMBOL ind2 48 400 R270
WINDOW 0 31 27 VTop 0
WINDOW 3 57 85 VBottom 0
SYMATTR InstName L2
SYMBOL ind2 256 272 R270
WINDOW 0 32 56 VTop 0
WINDOW 3 4 56 VBottom 0
SYMATTR InstName L3
SYMBOL ind2 48 208 R270
WINDOW 0 31 27 VTop 0
WINDOW 3 57 85 VBottom 0
SYMATTR InstName L1
SYMBOL cap 448 240 R90
WINDOW 0 0 32 VBottom 0
WINDOW 3 32 32 VTop 0
SYMATTR InstName C3
SYMBOL ind 448 256 R0
SYMATTR InstName L4
SYMBOL cap 592 256 R0
SYMATTR InstName C4
SYMBOL diode -240 208 R180
WINDOW 0 24 72 Left 0
WINDOW 3 24 0 Left 0
SYMATTR InstName D1
SYMBOL diode -144 208 R180
WINDOW 0 24 72 Left 0
WINDOW 3 24 0 Left 0
SYMATTR InstName D2
SYMBOL diode -240 352 R180
WINDOW 0 24 72 Left 0
WINDOW 3 24 0 Left 0
SYMATTR InstName D3
SYMBOL diode -144 352 R180
WINDOW 0 24 72 Left 0
WINDOW 3 24 0 Left 0
SYMATTR InstName D4
TEXT 544 216 VRight 0 ;Fluorescente
TEXT -424 240 Left 0 ;Vca In
TEXT -48 232 Left 0 !K L1 L2 L3 .999
