Version 4
SHEET 1 880 680
WIRE 288 64 144 64
WIRE 416 64 288 64
WIRE 144 96 144 64
WIRE 416 112 416 64
WIRE 96 144 -32 144
WIRE 256 144 144 144
WIRE 144 224 144 192
WIRE 144 224 -32 224
WIRE 256 224 256 144
WIRE 256 224 144 224
WIRE 416 224 416 192
WIRE 416 224 256 224
WIRE 144 256 144 224
FLAG 144 256 0
FLAG 288 64 Vds
SYMBOL 5827\\nmos_035 96 96 R0
SYMATTR InstName M1
SYMATTR Value2 W={W}
SYMBOL voltage -32 128 R0
WINDOW 0 40 36 Left 0
WINDOW 3 38 71 Left 0
WINDOW 123 0 0 Left 0
WINDOW 39 0 0 Left 0
SYMATTR InstName VGS
SYMATTR Value 3.3V
SYMBOL current 416 192 R180
WINDOW 0 24 88 Left 0
WINDOW 3 24 0 Left 0
WINDOW 123 0 0 Left 0
WINDOW 39 0 0 Left 0
SYMATTR InstName Id
SYMATTR Value 0
TEXT 8 296 Left 0 !.step dec param W 1000u 100000u 1
TEXT 8 328 Left 0 !.dc Id 1m 1 1m
TEXT 8 32 Left 0 !.param W=1u
TEXT 8 8 Left 0 !.lib 5827_035.lib
