Version 4
SHEET 1 1172 932
WIRE -80 304 -80 272
WIRE 112 96 240 96
WIRE 32 -32 80 -32
WIRE 80 -32 80 0
WIRE 80 -32 128 -32
WIRE 192 -32 240 -32
WIRE 240 -32 240 96
WIRE 240 176 240 192
WIRE 240 112 240 96
WIRE -32 -32 -80 -32
WIRE -80 -32 -80 96
WIRE -80 96 48 96
WIRE -80 272 80 272
WIRE -80 96 -80 272
WIRE -80 384 -80 416
WIRE 416 400 416 416
WIRE 480 208 480 192
WIRE 480 192 240 192
WIRE 240 192 240 208
WIRE 80 304 80 272
WIRE 80 368 80 416
WIRE 80 272 192 272
WIRE 528 208 528 48
WIRE 528 288 528 416
WIRE 240 416 240 400
WIRE 480 288 480 304
WIRE 480 304 416 304
WIRE 416 304 416 320
WIRE 240 320 240 304
FLAG 80 0 GND
FLAG -80 416 GND
FLAG 240 416 GND
FLAG 416 416 GND
FLAG 80 416 GND
FLAG 528 416 GND
SYMBOL MISC\\XTAL 112 80 R90
WINDOW 0 0 32 VBottom 0
WINDOW 3 32 32 VTop 0
SYMATTR InstName Y1
SYMATTR Value 0.25pF
SYMATTR SpiceLine Rser=0.1 Lser=0.001 Cpar=5e-011
SYMBOL NJF 192 208 R0
SYMATTR InstName J1
SYMATTR Value 2N5484
SYMBOL cap 224 112 R0
SYMATTR InstName C1
SYMATTR Value 200p
SYMBOL cap 192 -48 R90
WINDOW 0 0 32 VBottom 0
WINDOW 3 32 32 VTop 0
SYMATTR InstName C2
SYMATTR Value 100p
SYMBOL cap 32 -48 R90
WINDOW 0 0 32 VBottom 0
WINDOW 3 32 32 VTop 0
SYMATTR InstName C3
SYMATTR Value 25p
SYMBOL RES -96 288 R0
SYMATTR InstName R1
SYMATTR Value 100K
SYMBOL diode 64 368 M180
WINDOW 0 24 72 Left 0
WINDOW 3 24 0 Left 0
SYMATTR InstName D1
SYMATTR Value 1N4148
SYMBOL ind2 544 192 M0
WINDOW 0 -2 37 Right 0
WINDOW 3 -4 72 Right 0
SYMATTR InstName L2
SYMATTR Value 1m2
SYMBOL ind2 464 192 R0
WINDOW 0 -4 35 Right 0
WINDOW 3 -4 73 Right 0
SYMATTR InstName L1
SYMATTR Value 12µ
SYMBOL RES 224 304 R0
SYMATTR InstName R2
SYMATTR Value 100
SYMBOL Misc\\battery 416 304 R0
WINDOW 0 45 32 Left 0
WINDOW 3 45 80 Left 0
SYMATTR InstName V1
SYMATTR Value 9V
TEXT 512 704 Left 0 ;Wally's Widget Works, Inc.\n123 Waterloo Way\nWalla Walla, WA 98123
TEXT 512 864 Left 0 ;Date: Wed, July 14, 2004
TEXT 1104 800 Center 0 ;Rev:\nA
TEXT 528 800 Center 0 ;Size:\nA
TEXT 1128 864 Right 0 ;Sheet 1 of 1
TEXT 816 800 Center 0 ;Wireless Water-Witching Widget\nby Wally Wonderful
TEXT -64 576 Left 0 !.tran 1.5m startup
TEXT 424 176 Center 0 !K1 L1 L2 0.9
TEXT -96 496 Left 0 ;This example schematic is supplied for informational/educational purposes only.
TEXT -64 608 Left 0 !.options method=trap
TEXT 976 712 Left 0 ;A L L Y ' S\n I D G E T S
TEXT 240 -168 Center 0 ;Wireless Water-Witching Widget\nby Wally Wonderful
LINE Normal 896 688 905 690
LINE Normal 912 736 896 688
LINE Normal 934 722 928 736
LINE Normal 925 731 934 710
LINE Normal 916 731 925 731
LINE Normal 905 690 916 731
LINE Normal 972 688 963 690
LINE Normal 956 736 972 688
LINE Normal 934 722 940 736
LINE Normal 943 731 934 710
LINE Normal 952 731 943 731
LINE Normal 963 690 952 731
LINE Normal 988 768 975 765 2
LINE Normal 956 736 988 768 2
LINE Normal 940 736 956 736
LINE Normal 937 744 940 736 2
LINE Normal 943 741 939 752 2
LINE Normal 954 741 943 741 2
LINE Normal 975 765 954 741 2
LINE Normal 912 768 921 765 2
LINE Normal 912 736 912 768 2
LINE Normal 928 736 912 736
LINE Normal 937 744 928 736 2
LINE Normal 925 741 939 752 2
LINE Normal 917 741 925 741 2
LINE Normal 921 765 917 741 2
LINE Normal 921 765 921 765
LINE Normal 528 48 528 48
RECTANGLE Normal 1136 880 496 672
RECTANGLE Normal 1072 848 560 784
RECTANGLE Normal 1136 848 1072 784
RECTANGLE Normal 560 848 496 784
RECTANGLE Normal -576 -368 1136 880
CIRCLE Normal 544 48 512 16
ARC Normal 560 0 496 64 512 0 512 64 2
ARC Normal 496 0 560 64 544 64 544 0 2
ARC Normal 480 80 576 -16 560 96 576 -64 2
ARC Normal 576 80 480 -16 480 -64 496 96 2
