Version 4
SHEET 1 880 680
WIRE -208 112 -240 112
WIRE -80 112 -208 112
WIRE 0 112 -16 112
WIRE 32 112 0 112
WIRE 64 112 32 112
WIRE 176 112 144 112
WIRE 208 112 176 112
WIRE 320 112 288 112
WIRE 528 112 432 112
WIRE 576 112 528 112
WIRE -240 128 -240 112
WIRE -80 128 -80 112
WIRE -16 128 -16 112
WIRE 496 128 480 128
WIRE 176 144 176 112
WIRE 480 144 480 128
WIRE 432 160 432 112
WIRE 448 160 432 160
WIRE 576 176 576 112
WIRE 576 176 512 176
WIRE 320 192 320 112
WIRE 448 192 320 192
WIRE 272 208 176 208
WIRE 432 208 272 208
WIRE 576 208 576 176
WIRE 480 224 480 208
WIRE 176 240 176 208
WIRE 384 240 368 240
WIRE 544 240 528 240
WIRE -240 256 -240 208
WIRE -192 256 -240 256
WIRE -80 256 -80 208
WIRE -80 256 -112 256
WIRE -48 256 -80 256
WIRE -16 256 -16 208
WIRE -16 256 -48 256
WIRE 432 256 432 208
WIRE 432 256 416 256
WIRE 272 272 272 208
WIRE 352 272 272 272
WIRE 528 288 528 240
WIRE 528 288 416 288
WIRE -240 304 -240 256
WIRE 576 304 576 272
WIRE 32 352 32 112
WIRE 64 352 32 352
WIRE 176 352 176 320
WIRE 176 352 128 352
WIRE 208 352 176 352
WIRE 320 352 320 192
WIRE 320 352 272 352
FLAG -208 112 V+
FLAG -240 304 0
FLAG 496 128 V+
FLAG 0 112 In
FLAG 528 112 Out
FLAG 480 224 0
FLAG 368 240 V+
FLAG 384 304 0
FLAG -48 256 M
FLAG 576 304 M
SYMBOL res 160 96 R90
WINDOW 0 16 110 VBottom 0
WINDOW 3 -12 4 VTop 0
SYMATTR InstName R1
SYMATTR Value 1e7
SYMBOL res 304 96 R90
WINDOW 0 16 106 VBottom 0
WINDOW 3 -12 5 VTop 0
SYMATTR InstName R2
SYMATTR Value 1e7
SYMBOL cap 160 144 R0
WINDOW 0 -23 11 Left 0
WINDOW 3 -57 32 Left 0
SYMATTR InstName C1
SYMATTR Value 680p
SYMBOL res 160 224 R0
SYMATTR InstName R3
SYMATTR Value 5e6
SYMBOL cap 272 336 R90
WINDOW 0 16 57 VBottom 0
WINDOW 3 -12 -9 VTop 0
SYMATTR InstName C2
SYMATTR Value 340p
SYMBOL cap 128 336 R90
WINDOW 0 16 57 VBottom 0
WINDOW 3 -11 -9 VTop 0
SYMATTR InstName C3
SYMATTR Value 340p
SYMBOL Robertugo\\opamp5 480 112 R0
WINDOW 0 -26 64 Left 0
WINDOW 38 29 49 Left 0
SYMATTR InstName U1
SYMATTR SpiceModel Lf357
SYMBOL voltage -16 112 R0
WINDOW 0 -14 57 Left 0
WINDOW 3 52 94 Left 0
WINDOW 123 55 60 Left 0
WINDOW 39 0 0 Left 0
SYMATTR InstName V1
SYMATTR Value SINE(0 1 60)
SYMATTR Value2 AC 1
SYMBOL voltage -240 112 R0
WINDOW 0 -19 57 Left 0
WINDOW 3 22 17 Left 0
WINDOW 123 55 60 Left 0
WINDOW 39 0 0 Left 0
SYMATTR InstName Vcc
SYMATTR Value 15
SYMBOL Robertugo\\opamp5 384 208 M0
WINDOW 0 -26 64 Left 0
WINDOW 38 -41 15 Left 0
SYMATTR InstName U2
SYMATTR SpiceModel Lf357
SYMBOL Robertugo\\Pote 560 176 R0
WINDOW 0 -20 28 Left 0
WINDOW 3 -116 88 Left 0
WINDOW 123 -53 137 Center 0
SYMATTR InstName P1
SYMATTR Value Rt=47k
SYMATTR Value2 Set={cur}
SYMBOL res -96 240 R90
WINDOW 0 19 115 VBottom 0
WINDOW 3 -9 9 VTop 0
SYMATTR InstName R4
SYMATTR Value 1k
SYMBOL res -96 112 R0
WINDOW 0 -34 26 Left 0
WINDOW 3 -33 67 Left 0
SYMATTR InstName R5
SYMATTR Value 1k
TEXT -160 328 Left 0 !.ac dec 10 1 10k
TEXT 328 344 Left 0 !.step param cur 0 1 0.25
