Version 4
SHEET 1 880 680
WIRE 32 80 0 80
WIRE 144 80 112 80
WIRE 208 80 144 80
WIRE 304 80 288 80
WIRE 384 80 352 80
WIRE 496 80 464 80
WIRE 560 80 496 80
WIRE 656 80 640 80
WIRE 0 96 0 80
WIRE 352 96 352 80
WIRE 352 96 0 96
WIRE 192 112 80 112
WIRE 544 112 192 112
WIRE 192 128 192 112
WIRE 544 128 544 112
WIRE 0 144 0 96
WIRE 0 144 -64 144
WIRE 144 144 144 80
WIRE 160 144 144 144
WIRE 496 144 496 80
WIRE 512 144 496 144
WIRE -64 160 -64 144
WIRE 128 160 112 160
WIRE 304 160 304 80
WIRE 304 160 224 160
WIRE 656 160 656 80
WIRE 656 160 576 160
WIRE 160 176 144 176
WIRE 512 176 496 176
WIRE 192 208 192 192
WIRE 192 208 80 208
WIRE 544 208 544 192
WIRE 544 208 192 208
WIRE 0 240 0 144
WIRE 32 240 0 240
WIRE 144 240 144 176
WIRE 144 240 112 240
WIRE 224 240 144 240
WIRE 304 240 288 240
WIRE 352 240 352 96
WIRE 384 240 352 240
WIRE 496 240 496 176
WIRE 496 240 448 240
WIRE 560 240 496 240
WIRE 656 240 640 240
WIRE -64 256 -64 240
WIRE 304 256 304 240
WIRE 656 256 656 240
FLAG 304 256 0
FLAG 128 160 0
FLAG -64 256 0
FLAG 656 256 0
SYMBOL Robertugo\\opamp5 192 96 R0
SYMATTR InstName U1
SYMATTR SpiceModel level2
SYMBOL res 128 64 R90
WINDOW 0 16 104 VBottom 0
WINDOW 3 -12 9 VTop 0
SYMATTR InstName R1
SYMATTR Value 1e5
SYMBOL res 304 64 R90
WINDOW 0 16 103 VBottom 0
WINDOW 3 -12 7 VTop 0
SYMATTR InstName R2
SYMATTR Value 1e5
SYMBOL cap 288 224 R90
WINDOW 0 16 50 VBottom 0
WINDOW 3 -12 13 VTop 0
SYMATTR InstName C1
SYMATTR Value 1n2
SYMBOL Miscel\\v+&- 80 144 R0
WINDOW 0 35 -16 Left 0
SYMATTR InstName U2
SYMBOL res 128 224 R90
WINDOW 0 16 104 VBottom 0
WINDOW 3 -12 9 VTop 0
SYMATTR InstName R3
SYMATTR Value 1e5
SYMBOL voltage -64 144 R0
WINDOW 3 20 125 Left 0
WINDOW 123 20 153 Left 0
WINDOW 39 0 0 Left 0
SYMATTR Value SINE(0 1 1k)
SYMATTR Value2 AC 1
SYMATTR InstName V1
SYMBOL Robertugo\\opamp5 544 96 R0
SYMATTR InstName U3
SYMATTR SpiceModel level2
SYMBOL res 480 64 R90
WINDOW 0 16 104 VBottom 0
WINDOW 3 -12 9 VTop 0
SYMATTR InstName R4
SYMATTR Value 1e4
SYMBOL res 656 64 R90
WINDOW 0 16 103 VBottom 0
WINDOW 3 -12 7 VTop 0
SYMATTR InstName R5
SYMATTR Value 1e5
SYMBOL cap 448 224 R90
WINDOW 0 16 50 VBottom 0
WINDOW 3 -12 13 VTop 0
SYMATTR InstName C2
SYMATTR Value 1n2
SYMBOL res 656 224 R90
WINDOW 0 16 104 VBottom 0
WINDOW 3 -12 9 VTop 0
SYMATTR InstName R6
SYMATTR Value 1e5
TEXT 112 296 Left 0 !.tran 10m
