Version 4
SHEET 1 1172 680
WIRE 208 -416 -48 -416
WIRE 336 -416 288 -416
WIRE 416 -416 336 -416
WIRE 496 -416 416 -416
WIRE 672 -416 576 -416
WIRE 752 -416 672 -416
WIRE 816 -416 752 -416
WIRE 960 -416 896 -416
WIRE -48 -368 -48 -416
WIRE 336 -272 336 -416
WIRE 384 -272 336 -272
WIRE 752 -272 752 -416
WIRE 752 -272 704 -272
WIRE -48 -240 -48 -288
WIRE 384 -176 320 -176
WIRE 752 -176 704 -176
WIRE 384 -80 336 -80
WIRE 752 -80 704 -80
WIRE 384 16 288 16
WIRE 800 16 704 16
WIRE -48 32 -48 16
WIRE 112 32 112 16
WIRE 288 48 288 16
WIRE -48 128 -48 112
WIRE 112 128 112 112
WIRE 288 128 288 112
FLAG 320 -176 0
FLAG 752 -80 +Vs
FLAG 336 -80 -Vs
FLAG 288 128 0
FLAG 960 -416 0
FLAG -48 -240 0
FLAG 800 16 out
IOPIN 800 16 Out
FLAG 416 -416 1
FLAG 672 -416 2
FLAG -48 128 0
FLAG 112 128 0
FLAG 112 16 -Vs
FLAG -48 16 +Vs
FLAG 752 -176 0
SYMBOL cap 272 48 R0
SYMATTR InstName C3
SYMATTR Value 1n
SYMBOL res 480 -400 R270
WINDOW 0 32 56 VTop 0
WINDOW 3 0 56 VBottom 0
SYMATTR InstName R2
SYMATTR Value 10
SYMBOL res 800 -400 R270
WINDOW 0 32 56 VTop 0
WINDOW 3 0 56 VBottom 0
SYMATTR InstName R3
SYMATTR Value 990
SYMBOL res 192 -400 R270
WINDOW 0 32 56 VTop 0
WINDOW 3 0 56 VBottom 0
SYMATTR InstName R4
SYMATTR Value 1k
SYMBOL voltage -48 -384 R0
WINDOW 123 0 0 Left 0
WINDOW 39 0 0 Left 0
SYMATTR InstName V2
SYMATTR Value PULSE(0 2 0 .1u .1u 1m 2m)
SYMBOL voltage -48 16 R0
WINDOW 123 0 0 Left 0
WINDOW 39 0 0 Left 0
SYMATTR InstName V1
SYMATTR Value 5
SYMBOL voltage 112 16 R0
WINDOW 123 0 0 Left 0
WINDOW 39 0 0 Left 0
SYMATTR InstName V3
SYMATTR Value -5
SYMBOL ad626 544 -112 R0
SYMATTR InstName U1
TEXT -56 -496 Left 0 !.tran 4m
TEXT -56 -528 Left 0 !.include ad626.cir
TEXT 416 136 Left 0 ;AD626, AD626A, AD626B
TEXT -56 -464 Left 0 !.options plotwinsize=0
TEXT 744 -232 Left 0 ;G=10 if pin 7 is left open
TEXT 176 -528 Left 0 ;.include ad626a.cir
TEXT 424 -528 Left 0 ;.include ad626b.cir
