Version 4
SHEET 1 1164 1076
WIRE 128 80 96 80
WIRE 240 80 208 80
WIRE 352 80 240 80
WIRE 464 80 432 80
WIRE 96 112 96 80
WIRE 128 176 96 176
WIRE 304 176 304 160
WIRE 240 192 240 80
WIRE 272 192 240 192
WIRE 464 208 464 80
WIRE 464 208 336 208
WIRE 640 208 464 208
WIRE -112 224 -192 224
WIRE 128 224 128 176
WIRE 128 224 -32 224
WIRE 272 224 128 224
WIRE -192 256 -192 224
WIRE 304 256 304 240
WIRE -192 368 -192 336
WIRE 208 448 208 416
WIRE 352 448 352 416
WIRE 208 560 208 528
WIRE 352 560 352 528
FLAG 304 256 VSS
FLAG 304 160 VCC
FLAG 96 112 0
FLAG 640 208 out
IOPIN 640 208 Out
FLAG -192 368 0
FLAG 208 560 0
FLAG 352 560 0
FLAG 208 416 VCC
FLAG 352 416 VSS
FLAG -192 224 in0
FLAG 96 176 in
IOPIN 96 176 In
SYMBOL res 112 96 R270
WINDOW 0 32 56 VTop 0
WINDOW 3 0 56 VBottom 0
SYMATTR InstName R1
SYMATTR Value 10k
SYMBOL res 336 96 R270
WINDOW 0 32 56 VTop 0
WINDOW 3 0 56 VBottom 0
SYMATTR InstName R2
SYMATTR Value 10k
SYMBOL voltage -192 240 R0
WINDOW 3 -38 175 Left 0
WINDOW 123 -38 203 Left 0
WINDOW 39 0 0 Left 0
SYMATTR Value PULSE(-1 1 10u 1u 1u 99u 200u)
SYMATTR Value2 AC 1
SYMATTR InstName V1
SYMBOL res -128 240 R270
WINDOW 0 32 56 VTop 0
WINDOW 3 0 56 VBottom 0
SYMATTR InstName R6
SYMATTR Value 1k
SYMBOL voltage 208 432 R0
SYMATTR InstName V2
SYMATTR Value 2.5
SYMBOL voltage 352 432 R0
SYMATTR InstName V3
SYMATTR Value -2.5
SYMBOL Robertugo\\OPAMP5 304 144 R0
WINDOW 0 -28 63 Left 0
SYMATTR InstName U1
SYMATTR SpiceModel MAX492
TEXT -376 -176 Left 0 !.TRAN 400u
TEXT -376 -96 Left 0 ;.AC DEC 100 1K 1G
TEXT -376 -56 Left 0 ;.NOISE V(out) V1 dec 100 1 1G
TEXT 184 -208 Left 0 ;The opamp symbol "opamp2" is uded from the LTSPICE [opamps] selection box.\nPlace it on your schematic.\n Right mouse click on it and change "opamp2" to MAX477. Mark it also visible.\n \nYou can change the value MAX477 to any other 5-pin opamp in the \nmaxims_opamps.lib file. To be precise, to any with the pin-order \n+in, -in, V+, V-, out .
TEXT -376 -144 Left 0 !.options plotwinsize=0 ; data compression off
TEXT -376 -16 Left 0 !.op
