Version 4
SHEET 1 2536 1600
WIRE -384 336 -400 336
WIRE -128 336 -160 336
WIRE -400 368 -400 336
WIRE -384 368 -400 368
WIRE -64 368 -160 368
WIRE -32 368 -64 368
WIRE -144 400 -160 400
WIRE -64 416 -64 368
WIRE -128 432 -160 432
WIRE -128 448 -128 432
WIRE -816 480 -816 432
WIRE -384 480 -400 480
WIRE -128 480 -160 480
WIRE -624 512 -672 512
WIRE -400 512 -400 480
WIRE -400 512 -544 512
WIRE -384 512 -400 512
WIRE -128 512 -128 480
WIRE -128 512 -160 512
WIRE -400 544 -400 512
WIRE -384 544 -400 544
WIRE -128 544 -128 512
WIRE -128 544 -160 544
WIRE 80 544 -128 544
WIRE -816 592 -816 560
WIRE -672 592 -672 512
WIRE -64 592 -64 496
WIRE 80 592 80 544
FLAG -672 592 0
FLAG -128 448 0
FLAG -816 592 0
FLAG -816 432 +5V
FLAG -128 336 +5V
FLAG -32 368 LTS25-25
FLAG -64 592 0
FLAG 80 592 0
SYMBOL voltage -816 464 R0
WINDOW 123 0 0 Left 0
WINDOW 39 24 132 Left 0
SYMATTR SpiceLine Rser=1m
SYMATTR InstName V2
SYMATTR Value +5V
SYMBOL res -80 400 R0
SYMATTR InstName R1
SYMATTR Value 2K
SYMBOL current -624 512 M90
WINDOW 123 58 64 VLeft 0
WINDOW 39 0 0 Left 0
WINDOW 3 133 1535 VLeft 0
WINDOW 0 33 9 VLeft 0
SYMATTR Value2 AC 1
SYMATTR Value PWL(0 {IPn} 75u {IPp} 150u {IPn} 200u {IPn} 200.001u {IPp} 250u {IPp} 250.001u {IPn} 300u {IPn} 300.001u 0 350u 0 350.001u {IPp} 400u {IPp} 400.001u 0 450u 0 450.001u {IPn} 500u {IPn} 500.001u 0)
SYMATTR InstName I2
SYMBOL LTS-XX_hy -272 448 R0
SYMATTR InstName X16
TEXT -832 280 Left 0 !.tran 550u
TEXT -832 312 Left 0 !.param IPp 25
TEXT -376 584 Left 0 !.param IPn {IPp*-1}
