Version 4
SHEET 1 880 712
WIRE -512 144 -512 48
WIRE -512 384 -512 144
WIRE -512 528 -512 464
WIRE -512 576 -512 528
WIRE -480 176 -480 16
WIRE -464 144 -512 144
WIRE -464 176 -480 176
WIRE -464 320 -464 192
WIRE -400 576 -512 576
WIRE -368 160 -400 160
WIRE -368 416 -368 160
WIRE -320 416 -368 416
WIRE -304 16 -480 16
WIRE -304 80 -304 16
WIRE -304 192 -304 160
WIRE -304 224 -304 192
WIRE -304 320 -464 320
WIRE -304 320 -304 304
WIRE -240 192 -304 192
WIRE -240 352 -240 192
WIRE -240 576 -320 576
WIRE -240 640 -240 576
WIRE -176 16 -304 16
WIRE -176 64 -176 16
WIRE -176 176 -176 144
WIRE -176 208 -176 176
WIRE -176 320 -304 320
WIRE -176 320 -176 288
WIRE -176 464 -176 368
WIRE -144 416 -320 416
WIRE -144 464 -176 464
WIRE -144 528 -512 528
WIRE -144 528 -144 496
WIRE -144 576 -240 576
WIRE -144 608 -144 592
WIRE -112 176 -176 176
WIRE -80 208 -80 80
WIRE -80 224 -80 208
WIRE -80 320 -176 320
WIRE -80 320 -80 304
WIRE 0 176 -112 176
WIRE 0 208 -80 208
WIRE 0 320 -80 320
WIRE 0 320 0 224
WIRE 0 464 -32 464
WIRE 0 528 -144 528
WIRE 0 528 0 464
WIRE 16 576 -80 576
WIRE 16 624 16 576
WIRE 48 416 -48 416
WIRE 48 544 48 416
WIRE 80 528 80 512
WIRE 80 560 80 528
WIRE 80 592 80 560
WIRE 80 608 -144 608
WIRE 80 608 80 592
WIRE 96 192 64 192
WIRE 96 256 96 192
WIRE 96 368 -176 368
WIRE 96 368 96 256
WIRE 128 528 80 528
WIRE 128 544 48 544
WIRE 128 560 80 560
WIRE 128 576 16 576
WIRE 128 592 80 592
WIRE 144 272 144 128
WIRE 144 352 -240 352
WIRE 144 352 144 272
WIRE 144 608 80 608
WIRE 144 608 144 592
WIRE 160 128 144 128
WIRE 176 320 0 320
WIRE 176 320 176 176
WIRE 176 464 0 464
WIRE 176 464 176 320
WIRE 224 192 224 176
WIRE 224 400 224 368
WIRE 224 432 224 400
WIRE 224 464 176 464
WIRE 224 464 224 432
WIRE 224 512 80 512
WIRE 224 512 224 464
WIRE 224 544 192 544
WIRE 224 544 224 512
WIRE 272 192 224 192
WIRE 272 576 192 576
WIRE 272 576 272 192
WIRE 304 128 240 128
WIRE 304 208 304 128
WIRE 304 624 16 624
WIRE 304 624 304 384
WIRE 336 128 304 128
WIRE 336 368 224 368
WIRE 336 384 304 384
WIRE 336 400 224 400
WIRE 336 416 48 416
WIRE 336 432 224 432
WIRE 352 192 272 192
WIRE 352 192 352 176
WIRE 352 464 224 464
WIRE 352 464 352 432
WIRE 400 464 352 464
WIRE 400 464 400 416
WIRE 416 384 400 384
WIRE 432 128 416 128
WIRE 432 176 400 176
WIRE 432 176 432 128
WIRE 432 384 416 384
WIRE 432 448 432 384
WIRE 464 128 432 128
WIRE 464 368 464 128
WIRE 464 464 400 464
WIRE 464 464 464 368
WIRE 496 368 464 368
WIRE 512 464 464 464
WIRE 512 464 512 416
WIRE 560 448 432 448
WIRE 560 448 560 416
WIRE 576 640 -240 640
WIRE 576 640 576 608
WIRE 592 16 -176 16
WIRE 592 48 -512 48
WIRE 592 80 -80 80
WIRE 592 208 304 208
WIRE 592 272 144 272
WIRE 592 368 576 368
WIRE 592 464 512 464
WIRE 592 608 576 608
FLAG -112 176 N1
FLAG 96 256 N3
FLAG 592 80 2
FLAG 592 16 5
FLAG 592 368 7
FLAG 416 384 N7
FLAG -320 416 N2
FLAG 48 416 N5
FLAG 592 48 6
FLAG 592 272 8
FLAG 592 208 3
FLAG 272 192 N6
FLAG 592 464 1
FLAG 16 576 N4
FLAG 592 608 4
SYMBOL res -192 192 R0
WINDOW 0 31 47 Left 0
WINDOW 3 33 80 Left 0
SYMATTR InstName R1
SYMATTR Value 5k
SYMBOL res -192 48 R0
WINDOW 0 37 43 Left 0
WINDOW 3 37 74 Left 0
SYMATTR InstName R2
SYMATTR Value 5k
SYMBOL res -320 64 R0
SYMATTR InstName R3
SYMATTR Value 5k
SYMBOL sw 480 368 R270
WINDOW 0 24 -5 VRight 0
WINDOW 3 24 85 VRight 0
SYMATTR InstName S1
SYMATTR Value DS
SYMBOL Digital\\srflop -96 368 R0
WINDOW 0 -14 44 Left 0
WINDOW 3 -315 119 Left 0
SYMATTR InstName A3
SYMATTR Value Trise=100n tripdt=10n
SYMBOL sw 144 128 R270
WINDOW 0 22 -10 VRight 0
WINDOW 3 21 90 VRight 0
SYMATTR InstName S2
SYMATTR Value OS
SYMBOL sw 320 128 R270
WINDOW 0 31 -8 VRight 0
WINDOW 3 29 93 VRight 0
SYMATTR InstName S3
SYMATTR Value OS
SYMBOL Digital\\or 368 336 R0
WINDOW 3 -57 146 Left 0
WINDOW 0 -17 64 Left 0
SYMATTR Value Ref=.5 Vlow=-1 Trise=100n
SYMATTR InstName A4
SYMBOL res -320 208 R0
SYMATTR InstName R4
SYMATTR Value 4k
SYMBOL Digital\\or 160 496 R0
WINDOW 3 152 76 Left 0
SYMATTR Value Ref=.5 Vlow=-1 Trise=100n
SYMATTR InstName A5
SYMBOL Digital\\schmtinv -144 512 R0
WINDOW 3 -27 112 Left 0
WINDOW 0 -35 85 Left 0
SYMATTR Value Vt=.7 Vh=1m
SYMATTR InstName A6
SYMBOL res -496 480 R180
WINDOW 0 -35 77 Left 0
WINDOW 3 -37 33 Left 0
SYMATTR InstName R5
SYMATTR Value 1g
SYMBOL res -64 320 R180
WINDOW 0 -34 74 Left 0
WINDOW 3 -40 32 Left 0
SYMATTR InstName R6
SYMATTR Value 1g
SYMBOL Digital\\diffschmtbuf -464 96 R0
WINDOW 0 22 64 Left 0
WINDOW 3 -4 13 Left 0
SYMATTR InstName A1
SYMATTR Value Vt=0 Vh=1m
SYMBOL Digital\\diffschmtbuf 0 128 R0
WINDOW 0 21 63 Left 0
WINDOW 3 -41 14 Left 0
SYMATTR InstName A2
SYMATTR Value Vt=0 Vh=1m
SYMBOL res -304 560 R90
WINDOW 0 0 56 VBottom 0
WINDOW 3 32 56 VTop 0
SYMATTR InstName R41
SYMATTR Value 1g
TEXT 88 -32 Left 0 !.model DS SW(Ron=6 Roff=1g Vt=.5 Vh=-.4)\n.model OS SW(Ron=6 Roff=1g Vt=0 Vh=-.8)
