Version 4
SHEET 1 880 680
WIRE -1392 -336 -1440 -336
WIRE -1264 -336 -1312 -336
WIRE -1248 -336 -1264 -336
WIRE -1088 -336 -1168 -336
WIRE -2048 -224 -2160 -224
WIRE -1984 -224 -2048 -224
WIRE -1968 -224 -1984 -224
WIRE -1648 -224 -1680 -224
WIRE -1600 -224 -1648 -224
WIRE -1504 -224 -1600 -224
WIRE -1440 -224 -1440 -336
WIRE -1440 -224 -1504 -224
WIRE -1392 -224 -1440 -224
WIRE -1264 -224 -1264 -336
WIRE -1264 -224 -1312 -224
WIRE -1248 -224 -1264 -224
WIRE -1088 -224 -1088 -336
WIRE -1088 -224 -1168 -224
WIRE -1040 -224 -1088 -224
WIRE -928 -224 -960 -224
WIRE -832 -224 -848 -224
WIRE -704 -224 -832 -224
WIRE -400 -224 -704 -224
WIRE -1504 -208 -1504 -224
WIRE -2160 -192 -2160 -224
WIRE -1648 -192 -1648 -224
WIRE -704 -176 -704 -224
WIRE -832 -160 -832 -224
WIRE -1984 -128 -1984 -224
WIRE -1968 -128 -1984 -128
WIRE -1648 -128 -1680 -128
WIRE -1504 -112 -1504 -128
WIRE -2160 -96 -2160 -112
WIRE -1600 -96 -1600 -224
WIRE -2048 -80 -2048 -224
WIRE -1824 -48 -1824 -64
WIRE -336 -32 -464 -32
WIRE -224 -32 -256 -32
WIRE -1600 0 -1600 -32
WIRE -400 32 -400 -224
WIRE -224 32 -224 -32
WIRE -128 32 -224 32
WIRE -832 48 -832 -96
WIRE -832 48 -864 48
WIRE -704 48 -832 48
WIRE -544 48 -624 48
WIRE -464 48 -464 -32
WIRE -432 48 -464 48
WIRE -224 64 -224 32
WIRE -224 64 -368 64
WIRE -432 80 -464 80
WIRE -128 96 -128 32
WIRE -832 128 -832 48
WIRE -464 128 -464 80
WIRE -464 128 -832 128
WIRE -832 144 -832 128
WIRE -1392 160 -1440 160
WIRE -1264 160 -1312 160
WIRE -1248 160 -1264 160
WIRE -1088 160 -1168 160
WIRE -224 160 -224 144
WIRE -2048 272 -2160 272
WIRE -2000 272 -2048 272
WIRE -1968 272 -2000 272
WIRE -1648 272 -1680 272
WIRE -1600 272 -1648 272
WIRE -1504 272 -1600 272
WIRE -1440 272 -1440 160
WIRE -1440 272 -1504 272
WIRE -1392 272 -1440 272
WIRE -1264 272 -1264 160
WIRE -1264 272 -1312 272
WIRE -1248 272 -1264 272
WIRE -1088 272 -1088 160
WIRE -1088 272 -1168 272
WIRE -1040 272 -1088 272
WIRE -928 272 -960 272
WIRE -832 272 -832 208
WIRE -832 272 -848 272
WIRE -720 272 -832 272
WIRE -400 272 -400 96
WIRE -400 272 -720 272
WIRE -1504 288 -1504 272
WIRE -1648 304 -1648 272
WIRE -2160 336 -2160 272
WIRE -1600 352 -1600 272
WIRE -2000 368 -2000 272
WIRE -1968 368 -2000 368
WIRE -1648 368 -1680 368
WIRE -1504 384 -1504 368
WIRE -2048 432 -2048 272
WIRE -1600 432 -1600 416
WIRE -1824 464 -1824 432
FLAG -1824 -48 0
FLAG -1600 0 0
FLAG -1504 -112 0
FLAG -2160 -96 0
FLAG -1600 432 0
FLAG -1824 464 0
FLAG -2160 416 0
FLAG -1504 384 0
FLAG -864 48 0
FLAG -704 -96 0
FLAG -720 352 0
FLAG -224 160 0
FLAG -128 160 0
FLAG -2048 -16 0
FLAG -2048 496 0
SYMBOL ind -944 -240 R90
WINDOW 0 3 54 VBottom 0
WINDOW 3 -49 50 VTop 0
SYMATTR InstName L2
SYMATTR Value {trackind*0.9147}
SYMATTR SpiceLine Rser=1n
SYMBOL cap -848 -160 R0
SYMATTR InstName C7
SYMATTR Value {bigcer}
SYMATTR SpiceLine Rser=.033 Lser=700p
SYMBOL cap -848 144 R0
SYMATTR InstName C8
SYMATTR Value {bigcer}
SYMATTR SpiceLine Rser=.033 Lser=700p
SYMBOL voltage -2160 -208 R0
WINDOW 123 0 0 Left 0
WINDOW 39 0 0 Left 0
SYMATTR InstName V1
SYMATTR Value 10
SYMBOL current -1504 -208 R0
WINDOW 123 0 0 Left 0
WINDOW 39 38 63 Left 0
WINDOW 3 43 34 Left 0
SYMATTR SpiceLine load
SYMATTR Value {loadcurrent}
SYMATTR InstName I1
SYMBOL PowerProducts\\LT1964-5 -1824 320 R0
SYMATTR InstName U3
SYMBOL voltage -2160 320 R0
WINDOW 123 0 0 Left 0
WINDOW 39 0 0 Left 0
SYMATTR InstName V2
SYMATTR Value -10
SYMBOL current -1504 368 R180
WINDOW 123 0 0 Left 0
WINDOW 39 -46 2 Left 0
WINDOW 3 -179 45 Left 0
WINDOW 0 24 75 Left 0
SYMATTR SpiceLine load
SYMATTR Value {loadcurrent}
SYMATTR InstName I2
SYMBOL current -704 -176 R0
WINDOW 123 34 57 Left 0
WINDOW 39 0 0 Left 0
WINDOW 3 -102 -76 Left 0
SYMATTR Value2 AC 1 0
SYMATTR Value PULSE(0 10m 0 1n 1n 5u 10u)
SYMATTR InstName I3
SYMBOL current -720 272 R0
WINDOW 123 39 52 Left 0
WINDOW 39 0 0 Left 0
SYMATTR Value2 AC 1 0
SYMATTR InstName I4
SYMATTR Value SINE(0 0)
SYMBOL cap -1616 -96 R0
WINDOW 3 35 54 Left 0
SYMATTR Value 2.1µ
SYMATTR InstName C3
SYMATTR SpiceLine Rser=.008 Lser=1200p
SYMBOL cap -1616 352 R0
SYMATTR InstName C4
SYMATTR Value 2.1µ
SYMATTR SpiceLine Rser=.008 Lser=1200p
SYMBOL PowerProducts\\LT1761-5 -1824 -176 R0
SYMATTR InstName U1
SYMBOL cap -1664 -192 R0
WINDOW 3 13 -72 Left 0
SYMATTR Value {plusbypcer}
SYMATTR InstName C1
SYMBOL cap -1664 304 R0
WINDOW 3 -5 -65 Left 0
SYMATTR Value {minusbypcer}
SYMATTR InstName C2
SYMBOL ind -1152 -240 R90
WINDOW 0 5 56 VBottom 0
WINDOW 3 -42 25 VTop 0
SYMATTR InstName L1
SYMATTR Value {trackind*.01527}
SYMBOL ind -1296 -240 R90
WINDOW 0 5 56 VBottom 0
WINDOW 3 -41 48 VTop 0
SYMATTR InstName L3
SYMATTR Value {trackind*0.07}
SYMBOL res -832 -240 R90
WINDOW 0 0 56 VBottom 0
WINDOW 3 30 62 VTop 0
SYMATTR InstName R1
SYMATTR Value {trackres}
SYMBOL res -1152 -352 R90
WINDOW 0 0 56 VBottom 0
WINDOW 3 32 24 VTop 0
SYMATTR InstName R2
SYMATTR Value {trackres*16.4}
SYMBOL res -1296 -352 R90
WINDOW 0 0 56 VBottom 0
WINDOW 3 32 56 VTop 0
SYMATTR InstName R3
SYMATTR Value {trackres*3.31}
SYMBOL ind -944 256 R90
WINDOW 0 3 54 VBottom 0
WINDOW 3 -49 50 VTop 0
SYMATTR InstName L4
SYMATTR Value {trackind*0.9147}
SYMATTR SpiceLine Rser=1n
SYMBOL ind -1152 256 R90
WINDOW 0 5 56 VBottom 0
WINDOW 3 -42 25 VTop 0
SYMATTR InstName L5
SYMATTR Value {trackind*.01527}
SYMBOL ind -1296 256 R90
WINDOW 0 5 56 VBottom 0
WINDOW 3 -41 48 VTop 0
SYMATTR InstName L6
SYMATTR Value {trackind*0.07}
SYMBOL res -832 256 R90
WINDOW 0 0 56 VBottom 0
WINDOW 3 30 62 VTop 0
SYMATTR InstName R4
SYMATTR Value {trackres}
SYMBOL res -1152 144 R90
WINDOW 0 0 56 VBottom 0
WINDOW 3 32 24 VTop 0
SYMATTR InstName R5
SYMATTR Value {trackres*16.4}
SYMBOL res -1296 144 R90
WINDOW 0 0 56 VBottom 0
WINDOW 3 32 56 VTop 0
SYMATTR InstName R6
SYMATTR Value {trackres*3.31}
SYMBOL voltage -608 48 R90
WINDOW 3 -97 -167 VRight 0
WINDOW 123 53 35 VRight 0
WINDOW 39 -66 12 VRight 0
WINDOW 0 -14 53 Left 0
SYMATTR Value PULSE(-1 1 0 1e-8 1e-8 5e-6 10e-6)
SYMATTR Value2 AC 0 0
SYMATTR SpiceLine Rser=1u
SYMATTR InstName V3
SYMBOL res -240 48 R0
SYMATTR InstName R7
SYMATTR Value 111.1
SYMBOL res -240 -48 R90
WINDOW 0 0 56 VBottom 0
WINDOW 3 32 56 VTop 0
SYMATTR InstName R8
SYMATTR Value 1000
SYMBOL cap -144 96 R0
SYMATTR InstName C9
SYMATTR Value 22p
SYMATTR SpiceLine Rser=100 Lser=2n
SYMBOL res -448 32 R90
WINDOW 0 0 56 VBottom 0
WINDOW 3 32 56 VTop 0
SYMATTR InstName R9
SYMATTR Value 1000
SYMBOL Opamps\\LT1723 -400 0 R0
SYMATTR InstName U2
SYMBOL AVXsym\\AVXcap -2064 -80 R0
WINDOW 38 54 62 Left 0
SYMATTR SpiceModel TPSA225K016R1800
SYMATTR InstName U4
SYMATTR Value ""
SYMBOL AVXsym\\AVXcap -2032 496 R180
WINDOW 38 -125 -38 Left 0
SYMATTR SpiceModel TPSA225K016R1800
SYMATTR InstName U5
SYMATTR Value ""
TEXT -1480 488 Left 0 !.step param bigcer list 22n 47n 100n 220n 470n
TEXT -1448 456 Left 0 !.include avx\\AVX_TANTALUM.LIB
TEXT -1584 520 Left 0 ;.step param loadcurrent list 1m 2m 5m 10m 10m 20m 50m
TEXT -1320 432 Left 0 ;.ac dec 100 100 1e8
TEXT -1376 352 Left 0 ;.tran 0 100u 50u
TEXT -1416 376 Left 0 !.ac dec 100 100 1e8
TEXT -1448 -40 Left 0 !.param trackind 27.8n
TEXT -1192 -40 Left 0 !.param trackres 20.15m
TEXT -976 488 Left 0 ;.param bigcer 100n
TEXT -1152 552 Left 0 !.param plusbypcer 2200p
TEXT -872 552 Left 0 !.param minusbypcer 150p
TEXT -1536 96 Left 0 ;This network approximates the skin effect loss in the trackwork
TEXT -976 520 Left 0 !.param loadcurrent 20m
