* 
.MODEL QBFV420 NPN( 
+    IS = 2E-14 
+    NF = 0.9861 
+    ISE = 8.61E-13 
+    NE = 1.751 
+    BF = 335.9 
+    IKF = 0.195 
+    VAF = 303.4 
+    NR = 0.989 
+    ISC = 1.063E-12 
+    NC = 1.35 
+    BR = 20.05 
+    IKR = 0.03 
+    VAR = 23 
+    RB = 36.6 
+    IRB = 0.0001391 
+    RBM = 7.069 
+    RE = 0.388 
+    RC = 0.45 
+    XTB = 0 
+    EG = 1.11 
+    XTI = 3 
+    CJE = 1.611E-11 
+    VJE = 0.773 
+    MJE = 0.3749 
+    TF = 6.79E-10 
+    XTF = 19.83 
+    VTF = 2.217 
+    ITF = 0.1806 
+    PTF = 0 
+    CJC = 3.38E-12 
+    VJC = 0.05 
+    MJC = 0.2154 
+    XCJC = 0.553 
+    TR = 7.14E-08 
+    CJS = 0 
+    VJS = 0.75 
+    MJS = 0.333 
+    FC = 0.909) 
*
