*
.SUBCKT PBSS5320D 1 2 3 4 5 6
*
R1 1 2 0
R2 1 5 0
R3 1 6 0
*
Q1 1 3 4 PBSS5320D 
+ AREA = 1
*
.MODEL PBSS5320D PNP 
+ IS = 5.563E-013 
+ NF = 0.9847 
+ ISE = 1.803E-013 
+ NE = 1.509 
+ BF = 470 
+ IKF = 3.1 
+ VAF = 20 
+ NR = 0.9842 
+ ISC = 9.982E-014 
+ NC = 1.18 
+ BR = 200 
+ IKR = 0.65 
+ VAR = 5 
+ RB = 9.9 
+ IRB = 0.00075 
+ RBM = 4.026 
+ RE = 0.049 
+ RC = 0.021 
+ XTB = 0 
+ EG = 1.11 
+ XTI = 3 
+ CJE = 2.913E-010 
+ VJE = 0.916 
+ MJE = 0.4323 
+ TF = 1.9E-009 
+ XTF = 3 
+ VTF = 0.7 
+ ITF = 2.3 
+ PTF = 0 
+ CJC = 1.303E-010 
+ VJC = 0.4684 
+ MJC = 0.3376 
+ XCJC = 1 
+ TR = 2E-009 
+ CJS = 0 
+ VJS = 0.75 
+ MJS = 0.333 
+ FC = 0.78 
.ENDS
*
