*
.SUBCKT PBSS5350T 1 2 3
* 
* housing parasitics
LBlead 11 111 3.5E-10 
LE 2 22 1.12E-09 
LC 3 33 2.3E-10 
LBbond 1 11 9E-10 
CBCG 33 111 6.2E-14 
CBEG 22 111 4.5E-14 
CCEG 22 33 6.2E-14
* 
Q1 33 111 22 PBSS5350T 
+ AREA = 1
* 
.MODEL PBSS5350T PNP 
+ IS = 7.26E-13 
+ NF = 0.9959 
+ ISE = 2.347E-14 
+ NE = 1.301 
+ BF = 400 
+ IKF = 1.9 
+ VAF = 35 
+ NR = 0.9955 
+ ISC = 1.092E-13 
+ NC = 1.199 
+ BR = 80 
+ IKR = 0.95 
+ VAR = 10 
+ RB = 9.9 
+ IRB = 0.00075 
+ RBM = 4.026 
+ RE = 0.035 
+ RC = 0.035 
+ XTB = 0 
+ EG = 1.11 
+ XTI = 3 
+ CJE = 2.613E-10 
+ VJE = 0.916 
+ MJE = 0.4323 
+ TF = 1.1E-09 
+ XTF = 23 
+ VTF = 0.8 
+ ITF = 1.3 
+ PTF = 0 
+ CJC = 8.272E-11 
+ VJC = 0.8025 
+ MJC = 0.4363 
+ XCJC = 1 
+ TR = 1.9E-08 
+ CJS = 0 
+ VJS = 0.75 
+ MJS = 0.333 
+ FC = 0.78 
.ENDS
