*
.SUBCKT PBSS5160T 1 2 3
*
* housing parasitics
LB 1 11 1.3E-09 
LE 2 22 1.3E-009 
LC 3 33 2.3E-010 
CBCG 33 11 6.2E-014 
CBEG 22 11 4.5E-014 
CCEG 22 33 6.2E-014 
*
* The diode does not reflect a 
* physical device but improves 
* only modeling in the reverse
* mode of operation.
* 
Q1 33 11 22 PBSS5160T 
D1 33 11 DIODE 
*
.MODEL PBSS5160T PNP 
+ IS = 2.367E-013 
+ NF = 0.9977 
+ ISE = 1.836E-014 
+ NE = 1.276 
+ BF = 490 
+ IKF = 0.4 
+ VAF = 100 
+ NR = 0.9937 
+ ISC = 1.541E-013 
+ NC = 1.821 
+ BR = 25 
+ IKR = 0.5 
+ VAR = 18 
+ RB = 12 
+ IRB = 0.0011 
+ RBM = 0.1 
+ RE = 0.055 
+ RC = 0.12 
+ XTB = 0 
+ EG = 1.11 
+ XTI = 3 
+ CJE = 9.833E-011 
+ VJE = 0.838 
+ MJE = 0.4098 
+ TF = 7.8E-010 
+ XTF = 15 
+ VTF = 1.1 
+ ITF = 2 
+ PTF = 0 
+ CJC = 3.058E-011 
+ VJC = 0.6185 
+ MJC = 0.4452 
+ XCJC = 1 
+ TR = 3.2E-008 
+ CJS = 0 
+ VJS = 0.75 
+ MJS = 0.333 
+ FC = 0.74 
.MODEL DIODE D 
+ IS = 3.167E-014 
+ N = 1.051 
+ BV = 1000 
+ IBV = 0.001 
+ RS = 3000 
+ CJO = 0 
+ VJ = 1 
+ M = 0.7 
+ FC = 0 
+ TT = 0 
+ EG = 1.11 
+ XTI = 3 
.ENDS
*
