*
.MODEL QPMBT5550 NPN( 
+    IS = 1.663E-14 
+    NF = 0.9956 
+    ISE = 2.072E-15 
+    NE = 1.311 
+    BF = 144.7 
+    IKF = 0.545 
+    VAF = 440.1 
+    NR = 0.985 
+    ISC = 4E-12 
+    NC = 1.4 
+    BR = 2.994 
+    IKR = 0.2 
+    VAR = 30 
+    RB = 20 
+    IRB = 0.0002 
+    RBM = 6 
+    RE = 0.3345 
+    RC = 0.76 
+    XTB = 0 
+    EG = 1.11 
+    XTI = 3 
+    CJE = 2.716E-11 
+    VJE = 0.6743 
+    MJE = 0.3438 
+    TF = 1.026E-09 
+    XTF = 15 
+    VTF = 5 
+    ITF = 0.3 
+    PTF = 0 
+    CJC = 6.422E-12 
+    VJC = 0.4281 
+    MJC = 0.4077 
+    XCJC = 0.595 
+    TR = 3.28E-07 
+    CJS = 0 
+    VJS = 0.75 
+    MJS = 0.333 
+    FC = 0.8953)
*
