*
.MODEL QPMST4403 PNP( 
+    IS = 3.202E-14 
+    NF = 0.9778 
+    ISE = 3.543E-15 
+    NE = 1.45 
+    BF = 226.9 
+    IKF = 0.55 
+    VAF = 50.66 
+    NR = 0.979 
+    ISC = 8.53E-15 
+    NC = 1.09 
+    BR = 22.84 
+    IKR = 0.09 
+    VAR = 14 
+    RB = 28 
+    IRB = 0.00021 
+    RBM = 2.5 
+    RE = 0.11 
+    RC = 0.2467 
+    XTB = 0 
+    EG = 1.11 
+    XTI = 3 
+    CJE = 3.539E-11 
+    VJE = 0.8759 
+    MJE = 0.4257 
+    TF = 5.109E-10 
+    XTF = 5 
+    VTF = 7 
+    ITF = 0.7 
+    PTF = 12 
+    CJC = 2.452E-11 
+    VJC = 0.9 
+    MJC = 0.546 
+    XCJC = 0.601 
+    TR = 1.6E-08 
+    CJS = 0 
+    VJS = 0.75 
+    MJS = 0.333 
+    FC = 0.999)
*
