*
.SUBCKT PUMD14 1 2 3 4 5 6
*
R1 2 22 4.7E+04 
Cres1 2 6 4.8E-13 
*
R3 5 55 4.7E+04 
Cres3 5 3 4.8E-13 
*
Q1 6 22 1 PDTC144T
Q2 3 55 4 PDTA144T
*
.MODEL PDTC144T NPN
+ IS = 1.822E-14 
+ NF = 0.9932 
+ ISE = 2.894E-16 
+ NE = 1.4 
+ BF = 354.4 
+ IKF = 0.246 
+ VAF = 182 
+ NR = 0.9931 
+ ISC = 9.982E-12 
+ NC = 1.763 
+ BR = 14.99 
+ IKR = 0.05
+ VAR = 17.9 
+ RB = 10 
+ IRB = 5E-06 
+ RBM = 5 
+ RE = 0.649 
+ RC = 1.101 
+ XTB = 0 
+ EG = 1.11 
+ XTI = 3 
+ CJE = 1.32E-11 
+ VJE = 0.8401 
+ MJE = 0.3622 
+ TF = 1E-32 
+ XTF = 0 
+ VTF = 1E+03 
+ ITF = 0 
+ PTF = 0 
+ CJC = 3.821E-12 
+ VJC = 0.5986 
+ MJC = 0.3745 
+ XCJC = 0.6193 
+ TR = 1E-32
+ CJS = 0 
+ VJS = 0.75 
+ MJS = 0.333 
+ FC = 0.5
*
.MODEL PDTA144T PNP 
+ IS = 2.014E-14 
+ NF = 0.9974 
+ ISE = 6.578E-15 
+ NE = 1.45 
+ BF = 339.3 
+ IKF = 0.079 
+ VAF = 39.15 
+ NR = 0.9952 
+ ISC = 1.948E-12 
+ NC = 1.55 
+ BR = 12.01 
+ IKR = 0.015 
+ VAR = 16.5 
+ RB = 10 
+ IRB = 5E-06 
+ RBM = 5E-06 
+ RE = 0.673 
+ RC = 0.718 
+ CJE = 1.104E-11 
+ VJE = 0.9 
+ MJE = 0.2748 
+ TF = 1E-32 
+ XTF = 0 
+ VTF = 1E+03 
+ ITF = 0 
+ PTF = 0 
+ CJC = 6.4E-12 
+ VJC = 0.499 
+ MJC = 0.4435 
+ XCJC = 1 
+ TR = 1E-32 
+ CJS = 0 
+ VJS = 0.75 
+ MJS = 0.333 
+ XTB = 0 
+ XTI = 3 
+ EG = 1.11 
+ FC = 0.5
.ENDS
*
