Version 4
SHEET 1 1640 868
WIRE -384 80 -384 48
WIRE -384 288 -384 160
WIRE -384 624 -448 624
WIRE -384 624 -384 368
WIRE -336 -208 -448 -208
WIRE -336 -128 -336 -208
WIRE -336 272 -336 256
WIRE -320 416 -320 400
WIRE -320 512 -448 512
WIRE -320 528 -320 512
WIRE -320 624 -384 624
WIRE -320 624 -320 608
WIRE -304 -128 -336 -128
WIRE -304 48 -384 48
WIRE -304 64 -304 48
WIRE -288 256 -336 256
WIRE -288 288 -288 256
WIRE -288 400 -320 400
WIRE -288 400 -288 368
WIRE -240 0 -240 -64
WIRE -240 400 -288 400
WIRE -240 464 -256 464
WIRE -240 464 -240 400
WIRE -224 -128 -240 -128
WIRE -224 0 -240 0
WIRE -224 224 -448 224
WIRE -224 464 -240 464
WIRE -160 -64 -240 -64
WIRE -160 -48 -160 -64
WIRE -160 128 -160 48
WIRE -160 176 -160 128
WIRE -160 288 -160 272
WIRE -160 384 -160 368
WIRE -160 416 -160 384
WIRE -160 528 -160 512
WIRE -160 624 -320 624
WIRE -160 624 -160 608
WIRE -144 -128 -160 -128
WIRE -112 384 -160 384
WIRE -80 -64 -160 -64
WIRE -80 -64 -80 -128
WIRE 0 -64 -80 -64
WIRE 0 -48 0 -64
WIRE 0 80 0 48
WIRE 0 176 0 80
WIRE 0 288 0 272
WIRE 0 384 -32 384
WIRE 0 384 0 368
WIRE 0 416 0 384
WIRE 0 528 0 512
WIRE 0 624 -160 624
WIRE 0 624 0 608
WIRE 64 464 -224 464
WIRE 80 -64 0 -64
WIRE 80 0 64 0
WIRE 80 0 80 -64
WIRE 80 80 0 80
WIRE 80 80 80 48
WIRE 80 160 80 80
WIRE 96 48 80 48
WIRE 96 224 64 224
WIRE 160 0 160 -160
WIRE 240 224 224 224
WIRE 240 464 64 464
WIRE 304 0 304 -112
WIRE 304 96 160 96
WIRE 304 176 304 96
WIRE 304 288 304 272
WIRE 304 384 304 368
WIRE 304 416 304 384
WIRE 304 528 304 512
WIRE 304 624 0 624
WIRE 304 624 304 608
WIRE 352 384 304 384
WIRE 384 48 368 48
WIRE 384 80 384 48
WIRE 384 128 -160 128
WIRE 384 128 384 80
WIRE 400 80 384 80
WIRE 464 -160 160 -160
WIRE 464 32 464 -160
WIRE 464 176 464 128
WIRE 464 288 464 272
WIRE 464 384 432 384
WIRE 464 384 464 368
WIRE 464 416 464 384
WIRE 464 528 464 512
WIRE 464 624 304 624
WIRE 464 624 464 608
WIRE 528 464 240 464
WIRE 560 224 528 224
WIRE 608 -112 304 -112
WIRE 608 32 608 -112
WIRE 608 128 464 128
WIRE 688 80 672 80
WIRE 688 160 80 160
WIRE 688 160 688 80
WIRE 752 224 720 224
WIRE 752 464 528 464
WIRE 768 -112 608 -112
WIRE 768 48 768 -112
WIRE 768 160 768 128
WIRE 816 160 768 160
WIRE 816 176 816 160
WIRE 816 288 816 272
WIRE 816 384 816 368
WIRE 816 416 816 384
WIRE 816 528 816 512
WIRE 816 624 464 624
WIRE 816 624 816 608
WIRE 864 48 864 16
WIRE 864 160 816 160
WIRE 864 160 864 128
WIRE 864 384 816 384
WIRE 896 -208 -336 -208
WIRE 896 16 864 16
WIRE 896 16 896 -208
WIRE 928 16 896 16
WIRE 928 48 928 16
WIRE 928 160 928 128
WIRE 976 160 928 160
WIRE 976 176 976 160
WIRE 976 288 976 272
WIRE 976 384 944 384
WIRE 976 384 976 368
WIRE 976 416 976 384
WIRE 976 528 976 512
WIRE 976 624 816 624
WIRE 976 624 976 608
WIRE 1024 -160 464 -160
WIRE 1024 48 1024 -160
WIRE 1024 160 976 160
WIRE 1024 160 1024 128
WIRE 1040 464 752 464
WIRE 1072 224 1040 224
WIRE 1168 -160 1024 -160
WIRE 1168 -112 768 -112
WIRE 1216 -176 1216 -208
WIRE 1216 -64 1216 -96
WIRE 1216 32 1184 32
WIRE 1216 144 1184 144
WIRE 1328 -208 1216 -208
WIRE 1328 32 1296 32
WIRE 1328 32 1328 -208
WIRE 1328 144 1296 144
WIRE 1328 144 1328 32
WIRE 1376 -208 1328 -208
FLAG -448 -208 V+
IOPIN -448 -208 In
FLAG -448 624 V-
IOPIN -448 624 In
FLAG 1216 -64 0
FLAG -448 224 X1
IOPIN -448 224 In
FLAG 96 224 X2
IOPIN 96 224 In
FLAG 224 224 Y1
IOPIN 224 224 In
FLAG 560 224 Y2
IOPIN 560 224 In
FLAG 720 224 Z1
IOPIN 720 224 In
FLAG 1072 224 Z2
IOPIN 1072 224 In
FLAG 1376 -208 Out
IOPIN 1376 -208 Out
FLAG -448 512 SF
IOPIN -448 512 In
FLAG 1184 32 0
FLAG 1184 144 0
FLAG -336 272 0
FLAG -304 64 0
SYMBOL npn -256 416 M0
SYMATTR InstName Q1
SYMBOL res -336 512 R0
SYMATTR InstName R2
SYMATTR Value 5.4k
SYMBOL res -176 512 R0
SYMATTR InstName R3
SYMATTR Value 8k
SYMBOL npn -224 416 R0
SYMATTR InstName Q2
SYMBOL npn 64 416 M0
SYMATTR InstName Q3
SYMBOL res -16 512 R0
SYMATTR InstName R4
SYMATTR Value 8k
SYMBOL res -16 368 R90
WINDOW 0 0 56 VBottom 0
WINDOW 3 32 56 VTop 0
SYMATTR InstName R6
SYMATTR Value 36.5k
SYMBOL res -176 272 R0
SYMATTR InstName R5
SYMATTR Value 26k
SYMBOL res -16 272 R0
SYMATTR InstName R7
SYMATTR Value 26k
SYMBOL npn -224 176 R0
SYMATTR InstName Q4
SYMBOL npn 64 176 M0
SYMATTR InstName Q5
SYMBOL res 288 512 R0
SYMATTR InstName R8
SYMATTR Value 8k
SYMBOL npn 240 416 R0
SYMATTR InstName Q8
SYMBOL npn 528 416 M0
SYMATTR InstName Q9
SYMBOL res 448 512 R0
SYMATTR InstName R9
SYMATTR Value 8k
SYMBOL res 448 368 R90
WINDOW 0 0 56 VBottom 0
WINDOW 3 32 56 VTop 0
SYMATTR InstName R11
SYMATTR Value 36.5k
SYMBOL res 288 272 R0
SYMATTR InstName R10
SYMATTR Value 26k
SYMBOL res 448 272 R0
SYMATTR InstName R12
SYMATTR Value 26k
SYMBOL npn 240 176 R0
SYMATTR InstName Q10
SYMBOL npn 528 176 M0
SYMATTR InstName Q11
SYMBOL res 800 512 R0
SYMATTR InstName R13
SYMATTR Value 8k
SYMBOL npn 752 416 R0
SYMATTR InstName Q16
SYMBOL npn 1040 416 M0
SYMATTR InstName Q17
SYMBOL res 960 512 R0
SYMATTR InstName R14
SYMATTR Value 8k
SYMBOL res 960 368 R90
WINDOW 0 0 56 VBottom 0
WINDOW 3 32 56 VTop 0
SYMATTR InstName R16
SYMATTR Value 36.5k
SYMBOL res 800 272 R0
SYMATTR InstName R15
SYMATTR Value 26k
SYMBOL res 960 272 R0
SYMATTR InstName R17
SYMATTR Value 26k
SYMBOL npn 752 176 R0
SYMATTR InstName Q18
SYMBOL npn 1040 176 M0
SYMATTR InstName Q19
SYMBOL npn -224 -48 R0
SYMATTR InstName Q6
SYMBOL npn 64 -48 M0
SYMATTR InstName Q7
SYMBOL npn 96 0 R0
SYMATTR InstName Q12
SYMBOL npn 368 0 M0
SYMATTR InstName Q13
SYMBOL npn 400 32 R0
SYMATTR InstName Q14
SYMBOL npn 672 32 M0
SYMATTR InstName Q15
SYMBOL res 880 144 R180
WINDOW 0 36 76 Left 0
WINDOW 3 36 40 Left 0
SYMATTR InstName R19
SYMATTR Value 4.5k
SYMBOL res 784 144 R180
WINDOW 0 36 76 Left 0
WINDOW 3 36 40 Left 0
SYMATTR InstName R18
SYMATTR Value 1.5k
SYMBOL res 1008 32 R0
SYMATTR InstName R21
SYMATTR Value 1.5k
SYMBOL res -400 64 R0
SYMATTR InstName R1
SYMATTR Value 18k22
SYMBOL voltage -384 272 M0
SYMATTR InstName V1
SYMATTR Value 7.3
SYMBOL res 912 32 R0
SYMATTR InstName R20
SYMATTR Value 4.5k
SYMBOL g2 1216 -192 R0
SYMATTR InstName G1
SYMATTR Value 100
SYMBOL res 1312 16 R90
WINDOW 0 0 56 VBottom 0
WINDOW 3 32 56 VTop 0
SYMATTR InstName R22
SYMATTR Value 35
SYMBOL diode -224 -112 R270
WINDOW 0 32 32 VTop 0
WINDOW 3 0 32 VBottom 0
SYMATTR InstName D2
SYMATTR Value DD
SYMBOL diode -304 -112 R270
WINDOW 0 32 32 VTop 0
WINDOW 3 0 32 VBottom 0
SYMATTR InstName D3
SYMATTR Value DD
SYMBOL current -288 288 R0
SYMATTR InstName I1
SYMATTR Value 222µ
SYMBOL diode -144 -112 R270
WINDOW 0 32 32 VTop 0
WINDOW 3 0 32 VBottom 0
SYMATTR InstName D4
SYMATTR Value DD
SYMBOL Misc\\xvaristor 1312 128 R90
WINDOW 0 0 56 VBottom 0
WINDOW 3 32 56 VTop 0
SYMATTR InstName D1
SYMATTR Value lim
SYMATTR Prefix D
TEXT -432 208 Center 0 ;1
TEXT 80 240 Center 0 ;2
TEXT 224 240 Center 0 ;6
TEXT 544 240 Center 0 ;7
TEXT 736 240 Center 0 ;11
TEXT 1056 240 Center 0 ;10
TEXT 1336 -232 Center 0 ;12
TEXT -432 -224 Center 0 ;14
TEXT -432 608 Center 0 ;8
TEXT -432 496 Center 0 ;4
TEXT -528 -56 Left 0 ;Rsf=5k4*SF/(10-SF)
TEXT -528 -24 Left 0 ;SF = 10*Rsf/(Rsf+5k4)
TEXT -16 -304 Left 0 !.model NPN npn(Is=1f Bf=300 Xtb=1.5 Br=4 Cjc=1p Cje=2p Rb=80 Rc=0.4 Re=0.4 tr=250n)
TEXT -216 -320 Center 0 ;AD543 Simplified Model
TEXT -16 -336 Left 0 !.model DD D(Is=1e-13)
TEXT -360 -256 Left 0 ;Model from "analogspiceman"
TEXT 1184 -272 Center 0 !.model lim d(Vfwd={VS-2} Vrev={VS-2})
TEXT 1256 -328 Center 0 ;Output OpAmp
TEXT 976 -304 Left 0 !.param VS=15
RECTANGLE Normal -72 -288 -360 -352
