Version 4
SHEET 1 880 680
WIRE -592 96 -608 96
WIRE -448 96 -512 96
WIRE -384 96 -400 96
WIRE -304 96 -320 96
WIRE -96 96 -128 96
WIRE -512 112 -512 96
WIRE -96 112 -96 96
WIRE -400 128 -400 96
WIRE -384 128 -400 128
WIRE -304 128 -304 96
WIRE -304 128 -320 128
WIRE -448 160 -448 96
WIRE -384 160 -448 160
WIRE -288 160 -320 160
WIRE -608 176 -608 160
WIRE -448 192 -448 160
WIRE -384 192 -400 192
WIRE -256 192 -320 192
WIRE -240 192 -256 192
WIRE -192 192 -208 192
WIRE -96 192 -96 176
WIRE -96 192 -112 192
WIRE -48 192 -96 192
WIRE -512 208 -512 192
WIRE -512 208 -576 208
WIRE -48 208 -48 192
WIRE -400 224 -400 192
WIRE -384 224 -400 224
WIRE -208 224 -208 192
WIRE -208 224 -320 224
WIRE -288 240 -288 160
WIRE -240 240 -240 192
WIRE -208 240 -208 224
WIRE -176 240 -208 240
WIRE -96 240 -96 192
WIRE -96 240 -112 240
WIRE -608 304 -608 240
WIRE -448 304 -448 256
WIRE -448 304 -608 304
WIRE -400 304 -400 224
WIRE -400 304 -448 304
WIRE -288 304 -400 304
WIRE -240 304 -288 304
WIRE -112 304 -240 304
WIRE -48 304 -48 272
WIRE -48 304 -112 304
FLAG -128 96 Out
IOPIN -128 96 Out
FLAG -256 192 Vcc
FLAG -592 96 In
IOPIN -592 96 In
FLAG -112 304 Ground
SYMBOL res -208 208 R270
WINDOW 0 30 -8 VRight 0
WINDOW 3 30 84 VRight 0
SYMATTR InstName R3
SYMATTR Value 47
SYMATTR SpiceLine tol=1 pwr=1
SYMBOL polcap -112 112 R0
WINDOW 0 -20 28 Bottom 0
WINDOW 3 -31 22 Top 0
SYMATTR InstName C5
SYMATTR Value 220µ
SYMATTR Description Capacitor
SYMATTR Type cap
SYMATTR SpiceLine V=16 Irms=460m Rser=0.16 MTBF=3000 Lser=0 mfg="Nichicon" pn="UPL1C221MPH" type="Al electrolytic" ppPkg=1
SYMBOL cap -464 192 R0
WINDOW 0 -34 33 Left 0
WINDOW 3 -35 59 Left 0
SYMATTR InstName C2
SYMATTR Value 2n2
SYMBOL res -528 96 R0
WINDOW 0 28 46 Left 0
WINDOW 3 29 83 Left 0
SYMATTR InstName R2
SYMATTR Value 10k
SYMATTR SpiceLine tol=1 pwr=1
SYMBOL polcap -304 240 R0
WINDOW 0 -34 18 Left 0
WINDOW 3 -38 49 Left 0
SYMATTR InstName C6
SYMATTR Value 10µ
SYMATTR Description Capacitor
SYMATTR Type cap
SYMATTR SpiceLine V=16 Irms=35m Rser=2.8 MTBF=1000 Lser=0 mfg="Nichicon" pn="UPR1C100MAH" type="Al electrolytic" ppPkg=1
SYMBOL polcap -384 112 R270
WINDOW 0 -10 -33 VTop 0
WINDOW 3 17 104 VBottom 0
SYMATTR InstName C3
SYMATTR Value 10µ
SYMATTR Description Capacitor
SYMATTR Type cap
SYMATTR SpiceLine V=16 Irms=35m Rser=2.8 MTBF=1000 Lser=0 mfg="Nichicon" pn="UPR1C100MAH" type="Al electrolytic" ppPkg=1
SYMBOL FerriteBead -144 240 R90
WINDOW 0 0 29 VBottom 0
SYMATTR InstName L1
SYMATTR Value 350n
SYMATTR SpiceLine Ipk=0.5 Rser=0.1 Rpar=170 Cpar=831f mfg="Wurth Elektronik eiSos" pn="742 792 02"
SYMBOL Pote -592 144 M0
WINDOW 0 -53 46 Left 0
WINDOW 123 -57 139 Center 0
WINDOW 3 -27 114 Center 0
SYMATTR InstName Uvol
SYMATTR Value2 Set={cursor}
SYMATTR Value Rt=10k
SYMBOL cap -624 96 R0
WINDOW 0 42 31 Left 0
WINDOW 3 23 58 Left 0
SYMATTR InstName C1
SYMATTR Value 100n
SYMBOL cap -256 240 R0
WINDOW 0 42 26 Left 0
WINDOW 3 38 50 Left 0
SYMATTR InstName C0
SYMATTR Value 100n
SYMBOL cap -64 208 R0
WINDOW 0 -24 10 Left 0
WINDOW 3 -29 52 Left 0
SYMATTR InstName C4
SYMATTR Value 47n
SYMBOL Lm386 -352 160 R0
SYMATTR InstName X2
