Version 4
SHEET 1 880 680
WIRE 192 96 96 96
SYMBOL LM35 64 96 R0
SYMATTR InstName U1
TEXT 128 232 Left 0 !.step temp -55 125 1
TEXT 30 252 Left 0 !.op
TEXT 128 208 Left 0 !.lib lm35.sub
TEXT -456 136 Left 0 ;10mV/°C. \nPower and ground pins not considered!
