Version 4
SHEET 1 880 680
WIRE -64 160 -64 112
WIRE -64 272 -64 240
WIRE 96 112 -64 112
WIRE 96 160 96 112
WIRE 96 272 -64 272
WIRE 96 272 96 240
WIRE 96 288 96 272
WIRE 272 208 144 208
FLAG 96 288 0
FLAG 272 208 Vout
IOPIN 272 208 Out
SYMBOL potentiometer 80 144 R0
SYMATTR InstName U1
SYMATTR Value Rt=10K set=5
SYMBOL voltage -64 144 R0
WINDOW 123 0 0 Left 0
WINDOW 39 0 0 Left 0
SYMATTR InstName V1
SYMATTR Value 10
TEXT -50 394 Left 0 !.op
TEXT -176 328 Left 0 ;Wiper position is now (number of turns) and is constrained between  0.1 and 9.99 turns.
