Version 4
SHEET 1 1720 776
WIRE -368 160 -496 160
WIRE -304 160 -368 160
WIRE 400 160 272 160
WIRE 528 160 400 160
WIRE 576 160 528 160
WIRE -368 176 -368 160
WIRE 528 224 528 160
WIRE -496 240 -496 160
WIRE 400 240 400 160
WIRE 352 256 208 256
WIRE 720 288 688 288
WIRE 816 288 784 288
WIRE 864 288 816 288
WIRE 992 288 944 288
WIRE 1104 288 1072 288
WIRE 1200 288 1104 288
WIRE 352 304 240 304
WIRE 272 320 272 160
WIRE 528 320 528 304
WIRE 1200 320 1200 288
WIRE 1104 336 1104 288
WIRE -496 352 -496 320
WIRE -368 352 -368 320
WIRE -368 352 -496 352
WIRE -208 352 -368 352
WIRE -96 352 -144 352
WIRE -96 384 -96 352
WIRE -48 384 -96 384
WIRE 208 384 208 256
WIRE 208 384 144 384
WIRE 720 384 704 384
WIRE 816 384 816 288
WIRE 816 384 784 384
WIRE 272 400 272 384
WIRE 368 400 272 400
WIRE 432 400 368 400
WIRE 544 400 512 400
WIRE 560 400 544 400
WIRE 688 400 688 288
WIRE 688 400 656 400
WIRE -496 416 -496 352
WIRE -464 416 -496 416
WIRE -336 416 -400 416
WIRE -48 416 -256 416
WIRE 240 416 240 304
WIRE 240 416 144 416
WIRE 1200 416 1200 320
WIRE 272 432 272 400
WIRE -48 448 -256 448
WIRE 240 448 144 448
WIRE 1104 448 1104 400
WIRE 176 480 144 480
WIRE 208 480 176 480
WIRE 400 480 400 320
WIRE 560 480 400 480
WIRE 704 480 704 384
WIRE 704 480 656 480
WIRE 720 480 704 480
WIRE 816 480 784 480
WIRE -496 496 -496 416
WIRE -256 512 -256 448
WIRE -224 512 -256 512
WIRE -112 512 -144 512
WIRE 176 512 176 480
WIRE 272 512 272 496
WIRE 400 528 400 480
WIRE -256 544 -256 512
WIRE 240 544 240 448
WIRE 352 544 240 544
WIRE -112 560 -112 512
WIRE 688 560 688 400
WIRE 720 560 688 560
WIRE 816 560 816 480
WIRE 816 560 784 560
WIRE 1104 560 1104 528
WIRE 1104 560 816 560
WIRE 1200 560 1200 496
WIRE 1200 560 1104 560
WIRE 208 592 208 480
WIRE 352 592 208 592
WIRE 1104 592 1104 560
WIRE -496 656 -496 576
WIRE -256 656 -256 608
WIRE -112 656 -112 640
WIRE 400 656 400 608
FLAG 176 512 0
FLAG -256 656 0
FLAG -112 656 0
FLAG 368 400 12
FLAG 544 400 1
FLAG 272 512 0
FLAG 576 160 HT
FLAG 400 656 0
FLAG -496 656 0
FLAG 1104 592 0
FLAG 1200 320 OUT
FLAG -304 160 OUT
FLAG 528 320 0
SYMBOL HALF_VM 48 432 R0
SYMATTR InstName U1
SYMATTR SpiceLine REF=5 PERIOD=5U DUTYMAX=0.8  IMAX=2.5V VOUTHI=15V ROUT=10 VHIGH=3
SYMBOL sw 400 336 M180
SYMATTR InstName S1
SYMATTR Value Sbreak
SYMBOL sw 400 624 M180
SYMATTR InstName S2
SYMATTR Value Sbreak
SYMBOL cap -272 544 R0
SYMATTR InstName C1
SYMATTR Value 220p
SYMBOL res -240 528 R270
WINDOW 0 32 56 VTop 0
WINDOW 3 0 56 VBottom 0
SYMATTR InstName R1
SYMATTR Value 1k
SYMBOL bv -112 544 R0
SYMATTR InstName B1
SYMATTR Value V=abs(V(12,1))
SYMBOL res 416 416 R270
WINDOW 0 32 56 VTop 0
WINDOW 3 0 56 VBottom 0
SYMATTR InstName R2
SYMATTR Value 0.894
SYMBOL cap 256 432 R0
SYMATTR InstName C2
SYMATTR Value 10µ
SYMATTR SpiceLine Rpar=1e6
SYMBOL cap 256 320 R0
SYMATTR InstName C3
SYMATTR Value 10µ
SYMATTR SpiceLine Rpar=1e6
SYMBOL XFMR1 608 432 R0
SYMATTR InstName U2
SYMATTR SpiceLine RATIO=0.512
SYMBOL res -352 432 R270
WINDOW 0 32 56 VTop 0
WINDOW 3 0 56 VBottom 0
SYMATTR InstName R3
SYMATTR Value 20k
SYMBOL cap -464 432 R270
WINDOW 0 32 32 VTop 0
WINDOW 3 0 32 VBottom 0
SYMATTR InstName C4
SYMATTR Value 7.51n
SYMBOL cap -208 368 R270
WINDOW 0 32 32 VTop 0
WINDOW 3 0 32 VBottom 0
SYMATTR InstName C5
SYMATTR Value 625p
SYMBOL res -512 224 R0
SYMATTR InstName R4
SYMATTR Value 47.675k
SYMBOL res -384 224 R0
SYMATTR InstName R5
SYMATTR Value 0.70018k
SYMBOL cap -384 176 R0
WINDOW 0 -29 6 Left 0
WINDOW 3 -75 28 Left 0
SYMATTR InstName C6
SYMATTR Value 2.33n
SYMBOL res -512 480 R0
SYMATTR InstName R6
SYMATTR Value 10.346k
SYMBOL diode 720 304 R270
WINDOW 0 -36 -13 VTop 0
WINDOW 3 -8 52 VBottom 0
SYMATTR InstName D1
SYMATTR Value Dbreak
SYMBOL diode 720 400 R270
WINDOW 0 32 32 VTop 0
WINDOW 3 0 32 VBottom 0
SYMATTR InstName D2
SYMATTR Value Dbreak
SYMBOL diode 784 464 R90
WINDOW 0 0 32 VBottom 0
WINDOW 3 32 32 VTop 0
SYMATTR InstName D3
SYMATTR Value Dbreak
SYMBOL diode 784 544 R90
WINDOW 0 14 75 VBottom 0
WINDOW 3 -30 25 VTop 0
SYMATTR InstName D4
SYMATTR Value Dbreak
SYMBOL ind 848 304 R270
WINDOW 0 -24 16 VTop 0
WINDOW 3 5 56 VBottom 0
SYMATTR InstName L1
SYMATTR Value 81µ
SYMBOL res 976 304 R270
WINDOW 0 -28 11 VTop 0
WINDOW 3 0 56 VBottom 0
SYMATTR InstName R7
SYMATTR Value 70m
SYMBOL cap 1088 336 R0
SYMATTR InstName C7
SYMATTR Value 156µ
SYMBOL res 1088 432 R0
SYMATTR InstName R8
SYMATTR Value 76.5m
SYMBOL res 1184 400 R0
WINDOW 0 -21 9 Left 0
WINDOW 3 -7 66 Left 0
SYMATTR InstName R9
SYMATTR Value 7
SYMBOL voltage 528 208 R0
WINDOW 0 -43 -1 Left 0
WINDOW 3 -21 57 Left 0
SYMATTR InstName V1
SYMATTR Value 160
TEXT 584 200 Left 0 !.include power456.lib ; HALF_VM + more\n.model Sbreak VSWITCH Roff=1e6 Ron=1.0 Voff=0.0 Von=1.0\n.model Dbreak D TT=1n Cjo=10pF Rs=.1
TEXT 520 600 Left 0 ;Source: power456.lib, projet.lib\nhttp://perso.orange.fr/cbasso/Spice.htm\nhttp://perso.orange.fr/cbasso/Downloads/PSpice/PSmodels.zip
TEXT 24 568 Left 0 ;REF=5
TEXT 912 520 Left 0 !.ic V(out)=28
TEXT 912 544 Left 0 !.tran 0 2m 0 100n
TEXT 656 160 Left 0 !.options gmin=1e-10 reltol=0.003
TEXT -224 168 Left 0 ;Use the Alternate solver\nControl Panel -> SPICE -> Solver:Alternate
