Version 4
SHEET 1 2508 2152
WIRE 1312 1168 704 1168
WIRE 1488 1168 1376 1168
WIRE 1552 1168 1488 1168
WIRE 1648 1168 1616 1168
WIRE 1680 1168 1648 1168
WIRE 1808 1168 1760 1168
WIRE 1904 1168 1808 1168
WIRE 1952 1168 1904 1168
WIRE 2048 1168 1952 1168
WIRE 1808 1184 1808 1168
WIRE 1312 1200 1312 1168
WIRE 1376 1200 1376 1168
WIRE 1488 1248 1488 1168
WIRE 1504 1248 1488 1248
WIRE 1664 1248 1568 1248
WIRE 1952 1248 1952 1168
WIRE 1216 1296 576 1296
WIRE 1312 1296 1312 1280
WIRE 1312 1296 1216 1296
WIRE 1376 1296 1376 1280
WIRE 1808 1296 1808 1248
WIRE 1808 1296 1376 1296
WIRE 1856 1296 1808 1296
WIRE 576 1312 576 1296
WIRE 1312 1312 1312 1296
WIRE 1376 1312 1376 1296
WIRE 1808 1312 1808 1296
WIRE 1520 1344 1488 1344
WIRE 1648 1344 1648 1168
WIRE 1648 1344 1584 1344
WIRE 768 1360 736 1360
WIRE 1088 1360 1056 1360
WIRE 1184 1360 1168 1360
WIRE 576 1424 576 1392
WIRE 704 1424 704 1168
WIRE 768 1424 704 1424
WIRE 1312 1424 1312 1392
WIRE 1312 1424 1056 1424
WIRE 1376 1424 1376 1392
WIRE 1488 1424 1488 1344
WIRE 1488 1424 1376 1424
WIRE 1584 1424 1488 1424
WIRE 1664 1424 1664 1248
WIRE 1664 1424 1648 1424
WIRE 1680 1424 1664 1424
WIRE 1808 1424 1808 1376
WIRE 1808 1424 1760 1424
WIRE 1904 1424 1808 1424
WIRE 1952 1424 1952 1328
WIRE 1952 1424 1904 1424
WIRE 768 1488 736 1488
WIRE 1216 1488 1216 1296
WIRE 1216 1488 1056 1488
WIRE 768 1552 736 1552
WIRE 1168 1552 1056 1552
WIRE 1280 1552 1248 1552
WIRE 2048 1600 2048 1168
WIRE 592 1616 576 1616
WIRE 768 1616 656 1616
WIRE 1088 1616 1056 1616
WIRE 1248 1616 1168 1616
WIRE 656 1680 576 1680
WIRE 768 1680 736 1680
WIRE 1088 1680 1056 1680
WIRE 2048 1712 2048 1680
WIRE 2048 1712 1536 1712
WIRE 2048 1728 2048 1712
WIRE 768 1744 704 1744
WIRE 1120 1744 1056 1744
WIRE 1168 1744 1120 1744
WIRE 1280 1744 1248 1744
WIRE 1120 1760 1120 1744
WIRE 1280 1760 1280 1744
WIRE 768 1808 736 1808
WIRE 1072 1808 1056 1808
WIRE 2048 1824 2048 1808
WIRE 1120 1840 1120 1824
WIRE 1280 1840 1280 1824
WIRE 704 1888 704 1744
WIRE 1536 1888 1536 1712
WIRE 1536 1888 704 1888
FLAG 1904 1168 POS
FLAG 1904 1424 NEG
FLAG 576 1424 0
FLAG 1856 1296 0
FLAG 2048 1824 0
FLAG 1280 1552 0
FLAG 1248 1616 0
FLAG 1120 1840 0
FLAG 1280 1840 0
FLAG 1184 1360 0
FLAG 576 1616 0
FLAG 576 1680 0
FLAG 1072 1808 0
SYMBOL ind2 1072 1376 R270
WINDOW 0 32 56 VTop 0
WINDOW 3 5 56 VBottom 0
SYMATTR InstName L1
SYMATTR Value 25n
SYMATTR SpiceLine Rpar=1
SYMATTR Type ind
SYMBOL IND2 1776 1408 R90
WINDOW 0 4 56 VBottom 0
WINDOW 3 32 56 VTop 0
SYMATTR InstName L7
SYMATTR Value 105µ
SYMBOL IND2 1664 1184 R270
WINDOW 0 32 56 VTop 0
WINDOW 3 4 56 VBottom 0
SYMATTR InstName L6
SYMATTR Value 105µ
SYMBOL IND2 1392 1296 R180
WINDOW 0 -8 79 Right 0
WINDOW 3 -8 44 Right 0
SYMATTR InstName L4
SYMATTR Value 1837µ
SYMATTR SpiceLine Rpar=10K Rser=.05 Cpar=100p
SYMBOL IND2 1392 1408 R180
WINDOW 0 -6 73 Right 0
WINDOW 3 -3 33 Right 0
SYMATTR InstName L5
SYMATTR Value 1837µ
SYMATTR SpiceLine Rpar=10K Rser=.05 Cpar=100p
SYMBOL IND2 1296 1184 R0
WINDOW 0 1 33 Right 0
WINDOW 3 1 71 Right 0
SYMATTR InstName L2
SYMATTR Value 537µ
SYMATTR SpiceLine Rpar=10K Rser=.05 Cpar=50p
SYMBOL IND2 1296 1296 R0
WINDOW 0 -4 41 Right 0
WINDOW 3 -4 76 Right 0
SYMATTR InstName L3
SYMATTR Value 537µ
SYMATTR SpiceLine Rpar=10K Rser=.05 Cpar=50p
SYMBOL DIODE 1648 1408 R90
WINDOW 0 0 32 VBottom 0
WINDOW 3 32 32 VTop 0
WINDOW 38 32 32 VTop 0
WINDOW 39 32 32 VTop 0
WINDOW 40 32 32 VTop 0
WINDOW 123 32 32 VTop 0
SYMATTR InstName D1
SYMATTR Value MBRS140
SYMBOL DIODE 1568 1232 R90
WINDOW 0 0 32 VBottom 0
WINDOW 3 32 32 VTop 0
WINDOW 38 32 32 VTop 0
WINDOW 39 32 32 VTop 0
WINDOW 40 32 32 VTop 0
WINDOW 123 32 32 VTop 0
SYMATTR InstName D2
SYMATTR Value MBRS140
SYMBOL DIODE 1520 1360 R270
WINDOW 0 32 32 VTop 0
WINDOW 3 0 32 VBottom 0
WINDOW 38 0 32 VBottom 0
WINDOW 39 0 32 VBottom 0
WINDOW 40 0 32 VBottom 0
WINDOW 123 0 32 VBottom 0
SYMATTR InstName D3
SYMATTR Value MBRS140
SYMBOL DIODE 1552 1184 R270
WINDOW 0 32 32 VTop 0
WINDOW 3 0 32 VBottom 0
WINDOW 38 0 32 VBottom 0
WINDOW 39 0 32 VBottom 0
WINDOW 40 0 32 VBottom 0
WINDOW 123 0 32 VBottom 0
SYMATTR InstName D4
SYMATTR Value MBRS140
SYMBOL RES 2032 1824 M180
WINDOW 0 36 76 Left 0
WINDOW 3 36 40 Left 0
SYMATTR InstName R1
SYMATTR Value 2537
SYMBOL RES 2032 1584 R0
SYMATTR InstName R2
SYMATTR Value 7.50K
SYMBOL RES 1264 1568 M270
WINDOW 0 32 56 VTop 0
WINDOW 3 0 56 VBottom 0
SYMATTR InstName R4
SYMATTR Value 17K
SYMBOL RES 1184 1632 M270
WINDOW 0 32 56 VTop 0
WINDOW 3 0 56 VBottom 0
SYMATTR InstName R5
SYMATTR Value 17K
SYMBOL RES 1264 1760 M270
WINDOW 0 32 56 VTop 0
WINDOW 3 0 56 VBottom 0
SYMATTR InstName R6
SYMATTR Value 6.8K
SYMBOL RES 640 1664 M90
WINDOW 0 0 56 VBottom 0
WINDOW 3 32 56 VTop 0
SYMATTR InstName R3
SYMATTR Value 18.2K
SYMBOL CAP 1792 1312 R0
SYMATTR InstName C1
SYMATTR Value 33µ
SYMBOL CAP 1792 1184 R0
SYMATTR InstName C2
SYMATTR Value 33µ
SYMBOL CAP 1104 1824 M180
WINDOW 0 24 64 Left 0
WINDOW 3 24 8 Left 0
SYMATTR InstName C3
SYMATTR Value 1500p
SYMBOL CAP 1264 1760 R0
SYMATTR InstName C4
SYMATTR Value .015µ
SYMBOL CAP 592 1600 M90
WINDOW 0 0 32 VBottom 0
WINDOW 3 32 32 VTop 0
SYMATTR InstName C5
SYMATTR Value 1.15n
SYMBOL VOLTAGE 576 1296 R0
SYMATTR InstName V1
SYMATTR Value 5
SYMBOL POWERPRODUCTS\\LT1533 912 1584 R0
WINDOW 0 -3 -152 Center 0
WINDOW 3 -4 61 Center 0
SYMATTR InstName U1
SYMBOL RES 1936 1232 R0
SYMATTR InstName R8
SYMATTR Value 357
TEXT 1696 1824 Left 0 !.tran 2m startup
TEXT 1720 1208 Top 0 !K2 L6 L7 1
TEXT 1344 1160 Bottom 0 !K1 L2 L3 L4 L5 1.
