Version 4
SHEET 1 880 680
WIRE 112 80 -80 80
WIRE 352 80 320 80
WIRE -80 96 -80 80
WIRE 352 128 352 80
WIRE 352 128 16 128
WIRE 16 160 16 128
WIRE 32 160 16 160
WIRE 160 176 96 176
WIRE 368 176 272 176
WIRE 416 176 368 176
WIRE 688 176 688 144
WIRE -80 192 -80 176
WIRE 32 192 -80 192
WIRE 560 192 528 192
WIRE 624 192 592 192
WIRE 416 208 400 208
WIRE -80 224 -80 192
WIRE 368 224 368 176
WIRE 592 224 592 192
WIRE 624 224 624 192
WIRE 400 272 400 208
WIRE 528 272 400 272
WIRE 560 288 560 192
WIRE 560 288 400 288
WIRE 400 320 400 288
WIRE 416 320 400 320
WIRE -80 336 -80 304
WIRE -32 336 -80 336
WIRE 32 336 -32 336
WIRE 528 336 528 272
WIRE 560 336 560 288
WIRE 592 336 592 304
WIRE 592 336 560 336
WIRE 608 336 592 336
WIRE -80 352 -80 336
WIRE 160 352 96 352
WIRE 416 352 272 352
WIRE 32 368 16 368
WIRE 224 400 192 400
WIRE 368 400 368 336
WIRE 368 400 336 400
WIRE -80 448 -80 432
WIRE 544 448 -80 448
WIRE 688 448 688 272
WIRE 688 448 544 448
FLAG 608 336 3
FLAG 544 448 1
FLAG 320 80 6
FLAG -32 336 N1
FLAG 688 144 7
FLAG 112 80 8
FLAG -80 192 5
FLAG 16 368 2
FLAG 192 400 4
SYMBOL npn 624 176 R0
SYMATTR InstName Q1
SYMATTR Value Qnom
SYMBOL res 608 320 R180
WINDOW 0 -39 68 Left 0
WINDOW 3 -38 32 Left 0
SYMATTR InstName Rbq
SYMATTR Value 15k
SYMBOL res -96 80 R0
SYMATTR InstName R1
SYMATTR Value 5k
SYMBOL res -96 208 R0
SYMATTR InstName R2
SYMATTR Value 5k
SYMBOL res -96 336 R0
SYMATTR InstName R3
SYMATTR Value 5k
SYMBOL Compara 64 112 R0
SYMATTR InstName X1
SYMBOL Compara 64 288 R0
SYMATTR InstName X2
SYMBOL Inverter 208 112 R0
SYMATTR InstName X3
SYMBOL Inverter 208 288 R0
SYMATTR InstName X4
SYMBOL Nand 464 128 R0
SYMATTR InstName X5
SYMBOL Nand 464 272 R0
SYMATTR InstName X6
SYMBOL Inverter 272 336 R0
SYMATTR InstName X8
SYMBOL Inverter 304 288 R270
SYMATTR InstName X7
TEXT 392 120 Left 0 !.model Qnom NPN(BF=100)
