Version 4
SHEET 1 880 680
WIRE 448 -128 432 -128
WIRE 560 -128 544 -128
WIRE 432 -80 432 -128
WIRE 544 -80 544 -128
WIRE 432 32 432 0
WIRE 544 32 544 0
WIRE 128 96 112 96
WIRE 256 112 224 112
WIRE 288 112 272 112
WIRE 224 128 224 112
WIRE 256 144 256 112
WIRE 272 144 272 112
WIRE 16 160 -16 160
WIRE 128 160 128 96
WIRE 128 160 96 160
WIRE 240 160 128 160
WIRE 400 176 304 176
WIRE 416 176 400 176
WIRE 240 192 208 192
WIRE -16 208 -16 160
WIRE 128 208 128 160
WIRE 208 208 208 192
WIRE 400 208 400 176
WIRE 272 240 272 208
WIRE 288 240 272 240
WIRE -16 320 -16 288
WIRE 128 320 128 288
WIRE 208 320 208 288
WIRE 400 320 400 288
WIRE 256 384 256 208
WIRE 256 384 240 384
WIRE 256 400 256 384
WIRE 256 512 256 480
FLAG 448 -128 Vcc
IOPIN 448 -128 Out
FLAG 560 -128 Vss
IOPIN 560 -128 Out
FLAG 432 32 0
FLAG 544 32 0
FLAG 288 112 Vss
IOPIN 288 112 In
FLAG 288 240 Vcc
IOPIN 288 240 In
FLAG 224 128 0
FLAG 400 320 0
FLAG 208 320 0
FLAG 128 320 0
FLAG 416 176 out
IOPIN 416 176 Out
FLAG -16 320 0
FLAG 240 384 cntl
IOPIN 240 384 Out
FLAG 256 512 0
FLAG 112 96 in
IOPIN 112 96 Out
SYMBOL voltage 432 -96 R0
WINDOW 123 0 0 Left 0
WINDOW 39 0 0 Left 0
SYMATTR InstName V1
SYMATTR Value 5V
SYMBOL voltage 544 -96 R0
WINDOW 123 0 0 Left 0
WINDOW 39 0 0 Left 0
SYMATTR InstName V2
SYMATTR Value -5V
SYMBOL res 224 192 M0
SYMATTR InstName R3
SYMATTR Value 25
SYMBOL res 144 192 M0
SYMATTR InstName R2
SYMATTR Value 50
SYMBOL res 384 192 R0
SYMATTR InstName R4
SYMATTR Value 500
SYMBOL voltage -16 192 M0
WINDOW 0 38 34 Left 0
WINDOW 3 35 76 Left 0
WINDOW 123 0 0 Left 0
WINDOW 39 39 90 Left 0
SYMATTR InstName V3
SYMATTR Value SINE(0V 1mV 455kHz)
SYMBOL voltage 256 384 M0
WINDOW 0 39 37 Left 0
WINDOW 3 34 82 Left 0
WINDOW 123 0 0 Left 0
WINDOW 39 39 90 Left 0
SYMATTR InstName V4
SYMATTR Value PWL(0s -2V 250us 0V)
SYMBOL res 0 176 R270
WINDOW 0 32 56 VTop 0
WINDOW 3 0 56 VBottom 0
SYMATTR InstName R1
SYMATTR Value 50
SYMBOL VCA810 272 176 M180
SYMATTR InstName U1
TEXT -264 -104 Left 0 !.tran 250us
TEXT -264 -64 Left 0 !.include VCA810.sub
TEXT -264 -24 Left 0 !.option plotwinsize=0
TEXT 168 -272 Center 0 ;TI (Burr Brown) VCA810 High Gain Voltage Controlled Amplifier Test in LTSpiceIV V4.06x\nSee Page-11 of Data-Sheet for Test Circuit Example Simulated Here\nPSpice Subcircuit Model (Rev.-A) Provided by TI, See Model File Comments for Limitations\nGain Control Pin is Closest to the Inverting Input, Ground Pin is Closest to Non-Inverting Input Pin
TEXT 304 424 Left 0 ;V(cntrl), -2V => 0V\n= +40dB => -40dB
