Version 4
SHEET 1 880 1060
WIRE 448 -128 432 -128
WIRE 560 -128 544 -128
WIRE 432 -80 432 -128
WIRE 544 -80 544 -128
WIRE 432 32 432 0
WIRE 544 32 544 0
WIRE 128 96 112 96
WIRE 256 112 224 112
WIRE 288 112 272 112
WIRE 224 128 224 112
WIRE 256 144 256 112
WIRE 272 144 272 112
WIRE 16 160 -16 160
WIRE 128 160 128 96
WIRE 128 160 96 160
WIRE 240 160 128 160
WIRE 400 176 304 176
WIRE 416 176 400 176
WIRE 240 192 208 192
WIRE -16 208 -16 160
WIRE 128 208 128 160
WIRE 208 208 208 192
WIRE 400 208 400 176
WIRE 272 240 272 208
WIRE 288 240 272 240
WIRE -16 320 -16 288
WIRE 128 320 128 288
WIRE 208 320 208 288
WIRE 400 320 400 288
WIRE 256 368 256 208
WIRE 256 480 256 448
WIRE 128 592 112 592
WIRE 256 608 224 608
WIRE 288 608 272 608
WIRE 224 624 224 608
WIRE 256 640 256 608
WIRE 272 640 272 608
WIRE 16 656 -16 656
WIRE 128 656 128 592
WIRE 128 656 96 656
WIRE 240 656 128 656
WIRE 400 672 304 672
WIRE 416 672 400 672
WIRE 240 688 208 688
WIRE -16 704 -16 656
WIRE 128 704 128 656
WIRE 208 704 208 688
WIRE 400 704 400 672
WIRE 272 736 272 704
WIRE 288 736 272 736
WIRE -16 816 -16 784
WIRE 128 816 128 784
WIRE 208 816 208 784
WIRE 400 816 400 784
WIRE 256 864 256 704
WIRE 256 976 256 944
FLAG 448 -128 Vcc
IOPIN 448 -128 Out
FLAG 560 -128 Vss
IOPIN 560 -128 Out
FLAG 432 32 0
FLAG 544 32 0
FLAG 288 112 Vss
IOPIN 288 112 In
FLAG 288 240 Vcc
IOPIN 288 240 In
FLAG 224 128 0
FLAG 400 320 0
FLAG 208 320 0
FLAG 128 320 0
FLAG 416 176 out1
IOPIN 416 176 Out
FLAG -16 320 0
FLAG 256 480 0
FLAG 112 96 in1
IOPIN 112 96 Out
FLAG 288 608 Vss
IOPIN 288 608 In
FLAG 288 736 Vcc
IOPIN 288 736 In
FLAG 224 624 0
FLAG 400 816 0
FLAG 208 816 0
FLAG 128 816 0
FLAG 416 672 out2
IOPIN 416 672 Out
FLAG -16 816 0
FLAG 256 976 0
FLAG 112 592 in2
IOPIN 112 592 Out
SYMBOL voltage 432 -96 R0
WINDOW 123 0 0 Left 0
WINDOW 39 0 0 Left 0
SYMATTR InstName V1
SYMATTR Value 5V
SYMBOL voltage 544 -96 R0
WINDOW 123 0 0 Left 0
WINDOW 39 0 0 Left 0
SYMATTR InstName V2
SYMATTR Value -5V
SYMBOL res 224 192 M0
SYMATTR InstName R3
SYMATTR Value 25
SYMBOL res 144 192 M0
SYMATTR InstName R2
SYMATTR Value 50
SYMBOL res 384 192 R0
SYMATTR InstName R4
SYMATTR Value 500
SYMBOL voltage -16 192 M0
WINDOW 0 38 34 Left 0
WINDOW 3 35 76 Left 0
WINDOW 123 35 85 Left 0
WINDOW 39 39 90 Left 0
SYMATTR InstName V3
SYMATTR Value ""
SYMATTR Value2 AC 2V
SYMBOL voltage 256 352 M0
WINDOW 0 39 37 Left 0
WINDOW 3 39 75 Left 0
WINDOW 123 0 0 Left 0
WINDOW 39 39 90 Left 0
SYMATTR InstName V4
SYMATTR Value -2V
SYMBOL res 0 176 R270
WINDOW 0 32 56 VTop 0
WINDOW 3 0 56 VBottom 0
SYMATTR InstName R1
SYMATTR Value 50
SYMBOL VCA810 272 176 M180
SYMATTR InstName U1
SYMBOL res 224 688 M0
SYMATTR InstName R7
SYMATTR Value 25
SYMBOL res 144 688 M0
SYMATTR InstName R6
SYMATTR Value 50
SYMBOL res 384 688 R0
SYMATTR InstName R8
SYMATTR Value 500
SYMBOL voltage -16 688 M0
WINDOW 0 38 34 Left 0
WINDOW 3 35 76 Left 0
WINDOW 123 35 85 Left 0
WINDOW 39 39 90 Left 0
SYMATTR InstName V5
SYMATTR Value ""
SYMATTR Value2 AC 2V
SYMBOL voltage 256 848 M0
WINDOW 0 39 37 Left 0
WINDOW 3 39 75 Left 0
WINDOW 123 0 0 Left 0
WINDOW 39 39 90 Left 0
SYMATTR InstName V6
SYMATTR Value 0V
SYMBOL res 0 672 R270
WINDOW 0 32 56 VTop 0
WINDOW 3 0 56 VBottom 0
SYMATTR InstName R5
SYMATTR Value 50
SYMBOL VCA810 272 672 M180
SYMATTR InstName U2
TEXT -264 -64 Left 0 !.include VCA810.sub
TEXT -264 -24 Left 0 !.option plotwinsize=0
TEXT 168 -272 Center 0 ;TI (Burr Brown) VCA810 High Gain Voltage Controlled Amplifier Test in LTSpiceIV V4.06x\nSee Page-11 of Data-Sheet for Test Circuit Example Simulated Here\nPSpice Subcircuit Model (Rev.-A) Provided by TI, See Model File Comments for Limitations\nGain Control Pin is Closest to the Inverting Input, Ground Pin is Closest to Non-Inverting Input Pin
TEXT 304 392 Left 0 ;V(cntrl), -2V => 0V\n= +40dB => -40dB
TEXT -266 -104 Left 0 !.ac dec 512 1 100Meg
TEXT 304 888 Left 0 ;V(cntrl), -2V => 0V\n= +40dB => -40dB
