Version 4
SHEET 1 880 680
WIRE -640 400 -640 176
WIRE -640 496 -640 480
WIRE -544 400 -544 352
WIRE -544 496 -640 496
WIRE -544 496 -544 480
WIRE -496 176 -640 176
WIRE -496 208 -496 176
WIRE -496 496 -544 496
WIRE -496 496 -496 272
WIRE -448 352 -544 352
WIRE -448 368 -448 352
WIRE -448 496 -496 496
WIRE -448 496 -448 432
WIRE -416 240 -464 240
WIRE -368 96 -368 80
WIRE -368 176 -368 160
WIRE -368 400 -416 400
WIRE -320 240 -352 240
WIRE -224 80 -368 80
WIRE -224 96 -224 80
WIRE -224 176 -368 176
WIRE -224 176 -224 160
WIRE -208 240 -240 240
WIRE -208 288 -208 240
WIRE -208 400 -304 400
WIRE -208 400 -208 368
WIRE -160 80 -224 80
WIRE -160 96 -160 80
WIRE -160 176 -224 176
WIRE -160 176 -160 160
WIRE -160 192 -160 176
WIRE -160 240 -208 240
WIRE -160 256 -160 240
WIRE -160 368 -160 336
WIRE -160 400 -160 368
WIRE -160 496 -448 496
WIRE -160 496 -160 464
WIRE -160 512 -160 496
WIRE -64 80 -160 80
WIRE -64 112 -64 80
WIRE -64 272 -64 192
WIRE -64 384 -64 272
WIRE -64 496 -160 496
WIRE -64 496 -64 464
WIRE -16 272 -64 272
WIRE -16 384 -16 272
WIRE -16 496 -64 496
WIRE -16 496 -16 448
WIRE 32 240 -160 240
WIRE 32 272 -16 272
WIRE 64 80 -64 80
WIRE 64 224 64 80
WIRE 64 496 -16 496
WIRE 64 496 64 288
WIRE 128 256 96 256
WIRE 128 272 128 256
WIRE 128 368 -160 368
WIRE 128 368 128 352
WIRE 160 256 128 256
WIRE 240 80 64 80
WIRE 240 144 240 80
WIRE 240 256 224 256
WIRE 240 256 240 224
WIRE 240 336 240 256
WIRE 240 496 64 496
WIRE 240 496 240 416
WIRE 288 256 240 256
WIRE 288 336 288 256
WIRE 288 496 240 496
WIRE 288 496 288 400
WIRE 304 256 288 256
WIRE 320 80 240 80
WIRE 400 256 384 256
WIRE 400 336 400 256
WIRE 400 496 288 496
WIRE 400 496 400 400
WIRE 432 256 400 256
WIRE 512 496 400 496
WIRE 512 496 512 480
WIRE 528 80 400 80
WIRE 528 96 528 80
WIRE 560 80 528 80
WIRE 560 336 560 80
WIRE 560 496 512 496
WIRE 560 496 560 416
FLAG -160 192 0
FLAG -160 512 0
FLAG 512 480 Vss
IOPIN 512 480 Out
FLAG 528 96 Vcc
IOPIN 528 96 Out
FLAG 432 256 Mod_in
IOPIN 432 256 Out
SYMBOL Robertugo\\opamp5 64 192 R0
WINDOW 0 -26 64 Left 0
WINDOW 38 -106 27 Left 0
SYMATTR InstName U1
SYMATTR SpiceModel TL051
SYMBOL res -80 96 R0
SYMATTR InstName R1
SYMATTR Value 22k
SYMBOL res -80 368 R0
WINDOW 0 -33 32 Left 0
WINDOW 3 -48 68 Left 0
SYMATTR InstName R2
SYMATTR Value 22k
SYMBOL res -176 240 R0
WINDOW 0 42 37 Left 0
WINDOW 3 38 87 Left 0
SYMATTR InstName R5
SYMATTR Value 390k
SYMBOL cap -176 96 R0
SYMATTR InstName C1
SYMATTR Value 100n
SYMBOL polcap -352 224 R90
WINDOW 0 16 70 VBottom 0
WINDOW 3 16 69 VTop 0
SYMATTR InstName C2
SYMATTR Value 4.7µ
SYMATTR Description Capacitor
SYMATTR Type cap
SYMATTR SpiceLine V=63 Irms=170m Rser=1 MTBF=5000 Lser=0 mfg="Nichicon" pn="UPG1J4R7MPH" type="Al electrolytic" ppPkg=1
SYMBOL Robertugo\\Pote -480 304 R180
WINDOW 0 2 123 Right 0
WINDOW 3 3 100 Right 0
WINDOW 123 -50 23 Center 0
SYMATTR InstName U2
SYMATTR Value Rt=10K
SYMATTR Value2 Set=0.5
SYMBOL cap -144 400 M0
WINDOW 0 29 9 Left 0
WINDOW 3 34 55 Left 0
SYMATTR InstName C3
SYMATTR Value 270p
SYMBOL res 144 368 R180
WINDOW 0 -33 61 Left 0
WINDOW 3 -50 37 Left 0
SYMATTR InstName R6
SYMATTR Value 390k
SYMBOL voltage 560 320 R0
WINDOW 0 -61 57 Left 0
WINDOW 3 -12 58 Left 0
WINDOW 123 0 0 Left 0
WINDOW 39 0 0 Left 0
SYMATTR InstName V1
SYMATTR Value 15
SYMBOL res 224 320 R0
WINDOW 0 -39 38 Left 0
WINDOW 3 -38 63 Left 0
SYMATTR InstName R8
SYMATTR Value 22K
SYMBOL cap 272 336 R0
SYMATTR InstName C4
SYMATTR Value 10n
SYMBOL cap 384 336 R0
SYMATTR InstName C5
SYMATTR Value 1n
SYMBOL voltage -544 384 R0
WINDOW 0 -27 58 Left 0
WINDOW 3 -19 -183 VRight 0
WINDOW 123 0 0 Left 0
WINDOW 39 0 0 Left 0
SYMATTR InstName Vaud
SYMATTR Value SINE(0 100m 20k)
SYMBOL cap -32 384 R0
WINDOW 0 22 15 Left 0
WINDOW 3 23 50 Left 0
SYMATTR InstName C6
SYMATTR Value 100n
SYMBOL zener -208 160 R180
WINDOW 0 25 61 Left 0
WINDOW 3 22 1 Left 0
SYMATTR InstName D1
SYMATTR Value BZX84C12L
SYMBOL res 416 64 R90
WINDOW 0 44 109 VBottom 0
WINDOW 3 17 -5 VTop 0
SYMATTR InstName R10
SYMATTR Value 82
SYMBOL polcap -384 96 R0
WINDOW 0 43 7 Left 0
WINDOW 3 39 32 Left 0
SYMATTR InstName C7
SYMATTR Value 100µ
SYMATTR Description Capacitor
SYMATTR Type cap
SYMATTR SpiceLine V=16 Irms=265m Rser=0.35 MTBF=2000 Lser=0 mfg="Nichicon" pn="UPL1C101MPH" type="Al electrolytic" ppPkg=1
SYMBOL polcap 160 272 R270
WINDOW 0 33 34 VTop 0
WINDOW 3 -1 33 VBottom 0
SYMATTR InstName C8
SYMATTR Value 10µ
SYMATTR Description Capacitor
SYMATTR Type cap
SYMATTR SpiceLine V=50 Irms=170m Rser=1 MTBF=5000 Lser=0 mfg="Nichicon" pn="UPG1H100MPH" type="Al electrolytic" ppPkg=1
SYMBOL res 224 128 R0
WINDOW 0 -35 28 Left 0
WINDOW 3 -37 64 Left 0
SYMATTR InstName R7
SYMATTR Value 18K
SYMBOL res 400 240 R90
WINDOW 0 14 107 VBottom 0
WINDOW 3 -11 3 VTop 0
SYMATTR InstName R9
SYMATTR Value 39K
SYMBOL res -224 224 R90
WINDOW 0 14 107 VBottom 0
WINDOW 3 -11 3 VTop 0
SYMATTR InstName R3
SYMATTR Value 10K
SYMBOL res -192 384 R180
WINDOW 0 36 76 Left 0
WINDOW 3 36 40 Left 0
SYMATTR InstName R4
SYMATTR Value 220K
SYMBOL Robertugo\\Pote -432 464 R180
WINDOW 0 2 123 Right 0
WINDOW 3 3 100 Right 0
WINDOW 123 -50 23 Center 0
SYMATTR InstName U3
SYMATTR Value Rt=47K
SYMATTR Value2 Set=0.25
SYMBOL polcap -304 384 R90
WINDOW 0 16 -9 VBottom 0
WINDOW 3 18 -5 VTop 0
SYMATTR InstName C9
SYMATTR Value 4.7µ
SYMATTR Description Capacitor
SYMATTR Type cap
SYMATTR SpiceLine V=63 Irms=170m Rser=1 MTBF=5000 Lser=0 mfg="Nichicon" pn="UPG1J4R7MPH" type="Al electrolytic" ppPkg=1
SYMBOL voltage -640 384 R0
WINDOW 0 -27 55 Left 0
WINDOW 3 21 -169 VRight 0
WINDOW 123 0 0 Left 0
WINDOW 39 0 0 Left 0
SYMATTR InstName Vmic
SYMATTR Value SINE(0 10m 10k)
TEXT -634 102 Left 0 !.tran 2m
