* Library of PHILIPS Field Effect Transistors
* $Revision:   1.3  $
* $Author:   hirasuna  $
* $Date:   06 Jul 2001 14:50:26  $
*
*---------------------------------------------------------------
*
* PHILIPS welcomes comments with respect to the usefulness and/or accuracy
* of the data presented herein. Please direct your comments to your local
* sales office or directly using the fax form to:
*                        PHILIPS Semiconductors
*                        Business Unit Transistors & Diodes
*                        attention: Mr. B. Moran, bldg BY-3.072
*                        Gerstweg 2
*                        6534 AE Nijmegen
*                        The Netherlands
*                        Facs: +31-80-532901
*                        Tel : +31-80-532165
* 
*                     *****   DISCLAMER   *****
* 
* This data is intended for use by customers in the design of electrical
* circuits using PHILIPS semiconductors. The usual care has been taken,
* first, in generating the data, and second, in transcribing into the data
* disk. However, no responsibility for inaccuracies can be assumed by
* PHILIPS. PHILIPS does not assume any liability arising out of the use
* of the data or circuits builts therefrom; neither does it convey any
* license under its patent rights nor the rights of others.
* 
* PHILIPS reserves the right to make changes without further notice to any
* products described in the part herein to improve reliability, function or
* design.
* 
*---------------------------------------------------------------- 
*$
.SUBCKT BC264A/PLP 10 20 30
J1 10 20 30 NJF
.MODEL NJF NJF
+             VTO = -1.0686E+000
+            BETA = 1.73071E-003
+          LAMBDA = 2.29157E-002
+              RD = 9.05115E+000
+              RS = 9.05115E+000
+              IS = 1.70538E-016
+            CGS  = 2.20000E-012
+            CGD  = 2.20000E-012
+              PB = 9.78591E-001
+              FC = 5.00000E-001
.ENDS
*
*$
*---------------------------------------------------------------------------
*
.SUBCKT BC264B/PLP 10 20 30
J1 10 20 30 NJF
.MODEL NJF NJF
+             VTO = -1.7564E+000
+            BETA = 1.18820E-003
+          LAMBDA = 1.87821E-002
+              RD = 9.84550E+000
+              RS = 9.84550E+000
+              IS = 3.20636E-016
+            CGS  = 2.15000E-012
+            CGD  = 2.20000E-012
+              PB = 7.73534E-001
+              FC = 5.00000E-001
.ENDS
*
*$
*---------------------------------------------------------------------------
*
.SUBCKT BC264C/PLP 10 20 30
J1 10 20 30 NJF
.MODEL NJF NJF
+             VTO = -2.0850E+000
+            BETA = 1.24635E-003
+          LAMBDA = 2.46045E-002
+              RD = 1.68159E+001
+              RS = 1.68159E+001
+              IS = 2.16894E-016
+            CGS  = 2.25000E-012
+            CGD  = 2.25000E-012
+              PB = 9.32203E-001
+              FC = 5.00000E-001
.ENDS
*
*$
*---------------------------------------------------------------------------
*
.SUBCKT BC264D/PLP 10 20 30
J1 10 20 30 NJF
.MODEL NJF NJF
+             VTO = -2.3085E+000
+            BETA = 1.09045E-003
+          LAMBDA = 2.31754E-002
+              RD = 7.77648E+000
+              RS = 7.77648E+000
+              IS = 2.59121E-016
+            CGS  = 2.00000E-012
+            CGD  = 2.20000E-012
+              PB = 9.91494E-001
+              FC = 5.00000E-001
.ENDS
*
*$
*---------------------------------------------------------------------------
*
.SUBCKT BF245A/PLP 10 20 30
J1 10 20 30 NJF
.MODEL NJF NJF
+             VTO = -1.7372E+000
+            BETA = 1.16621E-003
+          LAMBDA = 1.77211E-002
+              RD = 9.01678E+000
+              RS = 9.01678E+000
+              IS = 2.91797E-016
+            CGS  = 2.20000E-012
+            CGD  = 2.20000E-012
+              PB = 7.80988E-001
+              FC = 5.00000E-001
.ENDS
*
*$
*---------------------------------------------------------------------------
*
.SUBCKT BF245B/PLP 10 20 30
J1 10 20 30 NJF
.MODEL NJF NJF
+             VTO = -2.3085E+000
+            BETA = 1.09045E-003
+          LAMBDA = 2.31754E-002
+              RD = 7.77648E+000
+              RS = 7.77648E+000
+              IS = 2.59121E-016
+            CGS  = 2.00000E-012
+            CGD  = 2.20000E-012
+              PB = 9.91494E-001
+              FC = 5.00000E-001
.ENDS
*
*$
*---------------------------------------------------------------------------
*
.SUBCKT BF245C/PLP 10 20 30
J1 10 20 30 NJF
.MODEL NJF NJF
+             VTO = -5.0014E+000
+            BETA = 5.43157E-004
+          LAMBDA = 2.71505E-002
+              RD = 1.20869E+001
+              RS = 1.20869E+001
+              IS = 3.64346E-016
+            CGS  = 2.00000E-012
+            CGD  = 2.00000E-012
+              PB = 1.24659E+000
+              FC = 5.00000E-001
.ENDS
*
*$
*---------------------------------------------------------------------------
*
.SUBCKT BF246A/PLP 10 20 30
J1 10 20 30 NJF
.MODEL NJF NJF
+             VTO = -5.3298E+000
+            BETA = 2.86527E-003
+          LAMBDA = 6.19323E-002
+              RD = 1.62278E+000
+              RS = 1.62278E+000
+              IS = 1.18582E-015
+            CGS  = 1.05000E-011
+            CGD  = 1.30000E-011
+              PB = 7.98217E-001
+              FC = 5.00000E-001
.ENDS
*
*$
*---------------------------------------------------------------------------
*
.SUBCKT BF247A/PLP 10 20 30
J1 10 20 30 NJF
.MODEL NJF NJF
+             VTO = -5.3298E+000
+            BETA = 2.86527E-003
+          LAMBDA = 6.19323E-002
+              RD = 1.62278E+000
+              RS = 1.62278E+000
+              IS = 1.18582E-015
+            CGS  = 1.05000E-011
+            CGD  = 1.30000E-011
+              PB = 7.98217E-001
+              FC = 5.00000E-001
.ENDS
*
*$
*---------------------------------------------------------------------------
*
.SUBCKT BF256A/PLP 10 20 30
J1 10 20 30 NJF
.MODEL NJF NJF
+             VTO = -2.1333E+000
+            BETA = 1.06491E-003
+          LAMBDA = 1.68673E-002
+              RD = 1.41231E+001
+              RS = 1.41231E+001
+              IS = 3.50865E-016
+            CGS  = 2.10000E-012
+            CGD  = 2.30000E-012

+              PB = 7.73895E-001
+              FC = 5.00000E-001
.ENDS
*
*$
*---------------------------------------------------------------------------
*
.SUBCKT BF256B/PLP 10 20 30
J1 10 20 30 NJF
.MODEL NJF NJF
+             VTO = -2.3085E+000
+            BETA = 1.09045E-003
+          LAMBDA = 2.31754E-002
+              RD = 7.77648E+000
+              RS = 7.77648E+000
+              IS = 2.59121E-016
+            CGS  = 2.00000E-012
+            CGD  = 2.20000E-012
+              PB = 9.91494E-001
+              FC = 5.00000E-001
.ENDS
*
*$
*---------------------------------------------------------------------------
*
.SUBCKT BF410A/PLP 10 20 30
J1 10 20 30 NJF
.MODEL NJF NJF
+             VTO = -8.8094E-001
+            BETA = 2.01845E-003
+          LAMBDA = 1.50475E-002
+              RD = 3.57223E+000
+              RS = 3.57223E+000
+              IS = 1.05515E-013
+            CGS  = 2.80000E-012
+            CGD  = 4.27000E-012
+              PB = 6.18391E-001
+              FC = 5.00000E-001
.ENDS
*
*$
*---------------------------------------------------------------------------
*
.SUBCKT BF410B/PLP 10 20 30
J1 10 20 30 NJF
.MODEL NJF NJF
+             VTO = -1.9058E+000
+            BETA = 1.54719E-003
+          LAMBDA = 1.72995E-002
+              RD = 3.06677E+000
+              RS = 3.06677E+000
+              IS = 7.02360E-014
+            CGS  = 4.18000E-012
+            CGD  = 2.37000E-012
+              PB = 7.16850E-001
+              FC = 5.00000E-001
.ENDS
*
*$
*---------------------------------------------------------------------------
*
.SUBCKT BF410C/PLP 10 20 30
J1 10 20 30 NJF
.MODEL NJF NJF
+             VTO = -2.3973E+000
+            BETA = 1.31099E-003
+          LAMBDA = 1.70958E-002
+              RD = 3.03493E+000
+              RS = 3.03493E+000
+              IS = 5.66111E-014
+            CGS  = 3.42000E-012
+            CGD  = 2.68000E-012
+              PB = 8.25674E-001
+              FC = 5.00000E-001
.ENDS
*
*$
*---------------------------------------------------------------------------
*
.SUBCKT BF410D/PLP 10 20 30
J1 10 20 30 NJF
.MODEL NJF NJF
+             VTO = -3.1715E+000
+            BETA = 1.22441E-003
+          LAMBDA = 1.98434E-002
+              RD = 2.61448E+000
+              RS = 2.61448E+000
+              IS = 3.88189E-014
+            CGS  = 5.40000E-012
+            CGD  = 4.08000E-012
+              PB = 8.59053E-001
+              FC = 5.00000E-001
.ENDS

*
*$
*---------------------------------------------------------------------------
*
.SUBCKT BF510/PLP 10 20 30
J1 10 20 30 NJF
.MODEL NJF NJF
+             VTO = -8.8094E-001
+            BETA = 2.01845E-003
+          LAMBDA = 1.50475E-002
+              RD = 3.57223E+000
+              RS = 3.57223E+000
+              IS = 1.05515E-013
+            CGS  = 2.80000E-012
+            CGD  = 2.27000E-012
+              PB = 6.18391E-001
+              FC = 5.00000E-001
.ENDS
*
*$
*---------------------------------------------------------------------------
*
.SUBCKT BF511/PLP 10 20 30
J1 10 20 30 NJF
.MODEL NJF NJF
+             VTO = -1.9058E+000
+            BETA = 1.54719E-003
+          LAMBDA = 1.72995E-002
+              RD = 3.06677E+000
+              RS = 3.06677E+000
+              IS = 7.02360E-014
+            CGS  = 4.18000E-012
+            CGD  = 2.37000E-012
+              PB = 7.16850E-001
+              FC = 5.00000E-001
.ENDS
*
*$
*---------------------------------------------------------------------------
*
.SUBCKT BF512/PLP 10 20 30
J1 10 20 30 NJF
.MODEL NJF NJF
+             VTO = -2.3973E+000
+            BETA = 1.31099E-003
+          LAMBDA = 1.70958E-002
+              RD = 3.03493E+000
+              RS = 3.03493E+000
+              IS = 5.66111E-014
+            CGS  = 3.42000E-012
+            CGD  = 2.68000E-012
+              PB = 8.25674E-001
+              FC = 5.00000E-001
.ENDS
*
*$
*---------------------------------------------------------------------------
*
.SUBCKT BF513/PLP 10 20 30
J1 10 20 30 NJF
.MODEL NJF NJF
+             VTO = -3.1715E+000
+            BETA = 1.22441E-003
+          LAMBDA = 1.98434E-002
+              RD = 2.61448E+000
+              RS = 2.61448E+000
+              IS = 3.88189E-014
+            CGS  = 5.40000E-012
+            CGD  = 4.08000E-012
+              PB = 8.59053E-001
+              FC = 5.00000E-001
.ENDS
*
*$
*---------------------------------------------------------------------------
*
.SUBCKT BF545A/PLP 10 20 30
J1 10 20 30 NJF
.MODEL NJF NJF
+             VTO = -1.7372E+000
+            BETA = 1.16621E-003
+          LAMBDA = 1.77211E-002
+              RD = 9.01678E+000
+              RS = 9.01678E+000

+              IS = 2.91797E-016
+            CGS  = 2.20000E-012
+            CGD  = 2.20000E-012
+              PB = 7.80988E-001
+              FC = 5.00000E-001
.ENDS
*
*$
*---------------------------------------------------------------------------
*
.SUBCKT BF545B/PLP 10 20 30
J1 10 20 30 NJF
.MODEL NJF NJF
+             VTO = -2.3085E+000
+            BETA = 1.09045E-003
+          LAMBDA = 2.31754E-002
+              RD = 7.77648E+000
+              RS = 7.77648E+000
+              IS = 2.59121E-016
+            CGS  = 2.00000E-012
+            CGD  = 2.20000E-012
+              PB = 9.91494E-001
+              FC = 5.00000E-001
.ENDS
*
*$
*---------------------------------------------------------------------------
*
.SUBCKT BF545C/PLP 10 20 30
J1 10 20 30 NJF
.MODEL NJF NJF
+             VTO = -5.0014E+000
+            BETA = 5.43157E-004
+          LAMBDA = 2.71505E-002
+              RD = 1.20869E+001
+              RS = 1.20869E+001
+              IS = 3.64346E-016
+            CGS  = 2.00000E-012
+            CGD  = 2.00000E-012
+              PB = 1.24659E+000
+              FC = 5.00000E-001
.ENDS
*
*$
*---------------------------------------------------------------------------
*
.SUBCKT BF556A/PLP 10 20 30
J1 10 20 30 NJF
.MODEL NJF NJF
+             VTO = -2.1333E+000
+            BETA = 1.06491E-003
+          LAMBDA = 1.68673E-002
+              RD = 1.41231E+001
+              RS = 1.41231E+001
+              IS = 3.50865E-016
+            CGS  = 2.10000E-012
+            CGD  = 2.30000E-012
+              PB = 7.73895E-001
+              FC = 5.00000E-001
.ENDS
*
*$
*---------------------------------------------------------------------------
*
.SUBCKT BF556B/PLP 10 20 30
J1 10 20 30 NJF
.MODEL NJF NJF
+             VTO = -2.3085E+000
+            BETA = 1.09045E-003
+          LAMBDA = 2.31754E-002
+              RD = 7.77648E+000
+              RS = 7.77648E+000
+              IS = 2.59121E-016
+            CGS  = 2.00000E-012
+            CGD  = 2.20000E-012
+              PB = 9.91494E-001
+              FC = 5.00000E-001
.ENDS
*
*$
*---------------------------------------------------------------------------
*
.SUBCKT BF851A/PLP 10 20 30
J1 10 20 30 NJF
.MODEL NJF NJF(VTO=-0.5111 BETA=0.01519 LAMBDA=0.03593 RD=4.164
+    RS=4.164 IS=4.102E-16 CGS=6.299E-12 CGD=6.299E-12 PB=0.6917 FC=0.5)
.ENDS
*
*$
*---------------------------------------------------------------------------
*
.SUBCKT BF851B/PLP 10 20 30
J1 10 20 30 NJF
.MODEL NJF NJF(VTO=-0.6391 BETA=0.01393 LAMBDA=0.04702 RD=3.577
+    RS=3.577  IS=3.769E-16 CGS=6.025E-12 CGD=6.025E-12 PB=0.7072 FC=0.5)
.ENDS
*
*$
*---------------------------------------------------------------------------
*
.SUBCKT BF851C/PLP 10 20 30
J1 10 20 30 NJF
.MODEL NJF NJF(VTO=-1.145 BETA=0.01522 LAMBDA=0.04494 RD=15.2 RS=15.2
+    IS=4.157E-16 CGS=6.581E-12 CGD=6.581E-12 PB=0.7395 FC=0.5)
.ENDS
*
*$
*---------------------------------------------------------------------------
*
.SUBCKT BF861A/PLP 10 20 30
J1 10 20 30 NJF
.MODEL NJF NJF(VTO=-0.5111 BETA=0.01519 LAMBDA=0.03593 RD=4.164
RS=4.164 IS=4.102E-16 CGS=6.299E-12 CGD=6.299E-12 PB=0.6917 FC=0.5)
.ENDS
*
*$
*---------------------------------------------------------------------------
*
.SUBCKT BF861B/PLP 10 20 30
J1 10 20 30 NJF
.MODEL NJF NJF(VTO=-0.6391 BETA=0.01393 LAMBDA=0.04702 RD=3.577 
+    RS=3.577  IS=3.769E-16 CGS=6.025E-12 CGD=6.025E-12 PB=0.7072 FC=0.5)
.ENDS
*
*$
*---------------------------------------------------------------------------
*
.SUBCKT BF861C/PLP 10 20 30
J1 10 20 30 NJF
.MODEL NJF NJF(VTO=-1.145 BETA=0.01522 LAMBDA=0.04494 RD=15.2 RS=15.2
+   IS=4.157E-16 CGS=6.581E-12 CGD=6.581E-12 PB=0.7395 FC=0.5)
.ENDS
*
*$
*---------------------------------------------------------------------------
*
*   BF901 SPICE MODEL MARCH 1996 PHILIPS SEMICONDUCTORS
*   ENVELOPE    SOT143 
*   1.: SOURCE;  2.: DRAIN;  3.: GATE 2;  4.: GATE 1;
.SUBCKT BF901/PLP 1 2 3 4
        L10          1 10   0.12N
        L20          2 20   0.12N
        L30          3 30   0.12N
        L40          4 40   0.12N
        L11         10 11   1.20N
        L21         20 21   1.20N
        L31         30 31   1.20N
        L41         40 41   1.20N
        C13         10 30   0.085P
        C14         10 40   0.085P
        C21         10 20   0.017P
        C23         20 30   0.085P
        C24         20 40   0.005P
        D11         42 11   ZENER
        D12         42 41   ZENER
        D21         32 11   ZENER
        D22         32 31   ZENER
        RS          10 12   100
        MOS1        61 41 11 12 GATE1 L=1.1E-6 W=1150E-6
        MOS2        21 31 61 12 GATE2 L=2.0E-6 W=1150E-6

.MODEL  ZENER  D  BV=10 CJO=1.2E-12  RS=10

.MODEL  GATE1
+  NMOS LEVEL=3 UO=600  VTO=0.6545 NFS=300E9 TOX=30.17E-9
+  NSUB=3E15 VMAX=140E3 RS=2.0 RD=2.0 XJ=200E-9 THETA=0.11
+  ETA=0.0877 KAPPA=1.474 LD=0.1E-6
+  CGSO=0.3E-9 CGDO=0.3E-9 CBD=0.5E-12 CBS=0.5E-12

.MODEL  GATE2 
+  NMOS LEVEL=3 UO=600  VTO=0.6545 NFS=300E9 TOX=30.17E-9
+  NSUB=3E15  VMAX=100E3 RS=2.0 RD=2.0 XJ=200E-9 THETA=0.11
+  ETA=0.06  KAPPA=2 LD=0.1E-6
+  CGSO=0.3E-9 CGDO=0.3E-9 CBD=0.5E-12 CBS=0.5E-12

.ENDS 
*$
*---------------------------------------------------------------------------
*
*   BF904 SPICE MODEL OCTOBER 1993 PHILIPS SEMICONDUCTORS
*   ENVELOPE    SOT143 
*   1.: SOURCE;  2.: DRAIN;  3.: GATE 2;  4.: GATE 1;
.SUBCKT BF904/PLP 1 2 3 4
        L10          1 10   0.12N
        L20          2 20   0.12N
        L30          3 30   0.12N
        L40          4 40   0.12N
        L11         10 11   1.20N
        L21         20 21   1.20N
        L31         30 31   1.20N
        L41         40 41   1.20N
        C13         10 30   0.085P
        C14         10 40   0.085P
        C21         10 20   0.017P
        C23         20 30   0.085P
        C24         20 40   0.005P
        D11         11 41   ZENER
        D22         11 31   ZENER
        RSUB        10 12 10
        MOS1A       61 41 11 12 GATE1 L=1.1E-6 W=1150E-6
        MOS2A       21 31 61 12 GATE2 L=2.0E-6 W=1150E-6
        MOS1B       71 41 11 12 GATE3 L=1.1E-6 W=   6E-6
        MOS2B       41 31 71 12 GATE4 L=4.0E-6 W=   6E-6

.MODEL  ZENER
+  D  BV=10 CJO=0.6E-12  RS=10

.MODEL  GATE1
+  NMOS LEVEL=3 UO=600  VTO=+0.700 NFS=300E9 TOX=42E-9
+  NSUB=3E15 VMAX=140E3 RS=2.0 RD=2.0 XJ=200E-9 THETA=0.11
+  ETA=0.06 KAPPA=2 LD=0.1E-6
+  CGSO=0.3E-9 CGDO=0.3E-9 CBD=0.5E-12 CBS=0.5E-12

.MODEL  GATE2
+  NMOS LEVEL=3 UO=600  VTO=+0.700 NFS=300E9 TOX=42E-9
+  NSUB=3E15  VMAX=100E3 RS=2.0 RD=2.0 XJ=200E-9 THETA=0.11
+  ETA=0.06  KAPPA=2 LD=0.1E-6
+  CGSO=0.3E-9 CGDO=0.3E-9 CBD=1.5E-12 CBS=0.5E-12

.MODEL  GATE3
+  NMOS LEVEL=3 UO=600  VTO=+0.700 NFS=300E9 TOX=42E-9
+  NSUB=3E15 VMAX=140E3 RS=400 RD=400 XJ=200E-9 THETA=0.11
+  ETA=0.06 KAPPA=2 LD=0.1E-6
+  CGSO=0.3E-9 CGDO=0.3E-9 CBD=0.1E-12 CBS=0.1E-12

.MODEL  GATE4
+  NMOS LEVEL=3 UO=600  VTO=+0.700 NFS=300E9 TOX=42E-9
+  NSUB=3E15  VMAX=100E3 RS=400 RD=400 XJ=200E-9 THETA=0.11
+  ETA=0.06  KAPPA=2 LD=0.1E-6
+  CGSO=0.3E-9 CGDO=0.3E-9 CBD=0.1E-12 CBS=0.1E-12

.ENDS 
*
*$
*---------------------------------------------------------------------------
*
*   BF904R SPICE MODEL OCTOBER 1993 PHILIPS SEMICONDUCTORS
*   ENVELOPE    SOT143R 
*   1.: SOURCE;  2.: DRAIN;  3.: GATE 2;  4.: GATE 1;
.SUBCKT BF904R/PLP 1 2 3 4
        L10          1 10   0.12N
        L20          2 20   0.12N
        L30          3 30   0.12N
        L40          4 40   0.12N
        L11         10 11   1.20N
        L21         20 21   1.20N
        L31         30 31   1.20N
        L41         40 41   1.20N
        C13         10 30   0.085P
        C14         10 40   0.085P
        C21         10 20   0.017P
        C23         20 30   0.085P
        C24         20 40   0.005P
        D11         11 41   ZENER
        D22         11 31   ZENER
        RSUB        10 12 10
        MOS1A       61 41 11 12 GATE1 L=1.1E-6 W=1150E-6
        MOS2A       21 31 61 12 GATE2 L=2.0E-6 W=1150E-6
        MOS1B       71 41 11 12 GATE3 L=1.1E-6 W=   6E-6
        MOS2B       41 31 71 12 GATE4 L=4.0E-6 W=   6E-6

.MODEL  ZENER
+  D  BV=10 CJO=0.6E-12  RS=10

.MODEL  GATE1
+  NMOS LEVEL=3 UO=600  VTO=+0.700 NFS=300E9 TOX=42E-9
+  NSUB=3E15 VMAX=140E3 RS=2.0 RD=2.0 XJ=200E-9 THETA=0.11
+  ETA=0.06 KAPPA=2 LD=0.1E-6
+  CGSO=0.3E-9 CGDO=0.3E-9 CBD=0.5E-12 CBS=0.5E-12

.MODEL  GATE2
+  NMOS LEVEL=3 UO=600  VTO=+0.700 NFS=300E9 TOX=42E-9
+  NSUB=3E15  VMAX=100E3 RS=2.0 RD=2.0 XJ=200E-9 THETA=0.11
+  ETA=0.06  KAPPA=2 LD=0.1E-6
+  CGSO=0.3E-9 CGDO=0.3E-9 CBD=1.5E-12 CBS=0.5E-12

.MODEL  GATE3
+  NMOS LEVEL=3 UO=600  VTO=+0.700 NFS=300E9 TOX=42E-9
+  NSUB=3E15 VMAX=140E3 RS=400 RD=400 XJ=200E-9 THETA=0.11
+  ETA=0.06 KAPPA=2 LD=0.1E-6
+  CGSO=0.3E-9 CGDO=0.3E-9 CBD=0.1E-12 CBS=0.1E-12

.MODEL  GATE4
+  NMOS LEVEL=3 UO=600  VTO=+0.700 NFS=300E9 TOX=42E-9
+  NSUB=3E15  VMAX=100E3 RS=400 RD=400 XJ=200E-9 THETA=0.11
+  ETA=0.06  KAPPA=2 LD=0.1E-6
+  CGSO=0.3E-9 CGDO=0.3E-9 CBD=0.1E-12 CBS=0.1E-12

.ENDS
*
*$
*---------------------------------------------------------------------------
*
*   BF904WR SPICE MODEL OCTOBER 1993 PHILIPS SEMICONDUCTORS
*   ENVELOPE    SOT343 
*   1.: SOURCE;  2.: DRAIN;  3.: GATE 2;  4.: GATE 1;
.SUBCKT BF904WR/PLP 1 2 3 4
        L10          1 10 0.10N
        L20          2 20 0.34N
        L30          3 30 0.34N
        L40          4 40 0.34N
        L11         10 11 1.10N
        L21         20 21 1.10N
        L31         30 31 1.10N
        L41         40 41 1.10N
        C13         10 30 0.060P
        C14         10 40 0.060P
        C21         10 20 0.050P
        C23         20 30 0.070P
        C24         20 40 0.005P
        D11         11 41   ZENER
        D22         11 31   ZENER
        RSUB        10 12 10
        MOS1A       61 41 11 12 GATE1 L=1.1E-6 W=1150E-6
        MOS2A       21 31 61 12 GATE2 L=2.0E-6 W=1150E-6
        MOS1B       71 41 11 12 GATE3 L=1.1E-6 W=   6E-6
        MOS2B       41 31 71 12 GATE4 L=4.0E-6 W=   6E-6

.MODEL  ZENER
+  D  BV=10 CJO=0.6E-12  RS=10

.MODEL  GATE1
+  NMOS LEVEL=3 UO=600  VTO=+0.700 NFS=300E9 TOX=42E-9
+  NSUB=3E15 VMAX=140E3 RS=2.0 RD=2.0 XJ=200E-9 THETA=0.11
+  ETA=0.06 KAPPA=2 LD=0.1E-6
+  CGSO=0.3E-9 CGDO=0.3E-9 CBD=0.5E-12 CBS=0.5E-12

.MODEL  GATE2
+  NMOS LEVEL=3 UO=600  VTO=+0.700 NFS=300E9 TOX=42E-9
+  NSUB=3E15  VMAX=100E3 RS=2.0 RD=2.0 XJ=200E-9 THETA=0.11
+  ETA=0.06  KAPPA=2 LD=0.1E-6
+  CGSO=0.3E-9 CGDO=0.3E-9 CBD=1.5E-12 CBS=0.5E-12

.MODEL  GATE3
+  NMOS LEVEL=3 UO=600  VTO=+0.700 NFS=300E9 TOX=42E-9
+  NSUB=3E15 VMAX=140E3 RS=400 RD=400 XJ=200E-9 THETA=0.11
+  ETA=0.06 KAPPA=2 LD=0.1E-6
+  CGSO=0.3E-9 CGDO=0.3E-9 CBD=0.1E-12 CBS=0.1E-12

.MODEL  GATE4
+  NMOS LEVEL=3 UO=600  VTO=+0.700 NFS=300E9 TOX=42E-9
+  NSUB=3E15  VMAX=100E3 RS=400 RD=400 XJ=200E-9 THETA=0.11
+  ETA=0.06  KAPPA=2 LD=0.1E-6
+  CGSO=0.3E-9 CGDO=0.3E-9 CBD=0.1E-12 CBS=0.1E-12

.ENDS 
*
*$
*---------------------------------------------------------------------------
*
*   BF908 SPICE MODEL OCTOBER 1993 PHILIPS SEMICONDUCTORS
*   ENVELOPE    SOT143 
*   1.: SOURCE;  2.: DRAIN;  3.: GATE 2;  4.: GATE 1;
.SUBCKT BF908/PLP 1 2 3 4
        L10          1 10 0.12N
        L20          2 20 0.12N
        L30          3 30 0.12N
        L40          4 40 0.12N
        L11         10 11 1.20N
        L21         20 21 1.20N
        L31         30 31 1.20N
        L41         40 41 1.20N
        C13         10 30 0.085P
        C14         10 40 0.085P
        C21         10 20 0.017P
        C23         20 30 0.085P
        C24         20 40 0.005P
        D11        42 11   ZENER
        D12        42 41   ZENER
        D21        32 11   ZENER
        D22        32 31   ZENER
        RS         10 12 100
        MOS1       61 41 11 12 GATE1 L=1.1E-6 W=1750E-6
        MOS2       21 31 61 12 GATE2 L=2.0E-6 W=1750E-6

.MODEL  ZENER
+  D  BV=10 CJO=1.2E-12  RS=10


.MODEL  GATE1
+  NMOS LEVEL=3 UO=600  VTO=-0.250 NFS=300E9 TOX=33E-9
+  NSUB=3E15 VMAX=140E3 RS=2.0 RD=2.0 XJ=200E-9 THETA=0.11
+  ETA=0.06 KAPPA=2 LD=0.1E-6
+  CGSO=0.3E-9 CGDO=0.3E-9 CBD=0.5E-12 CBS=0.5E-12

.MODEL  GATE2
+  NMOS LEVEL=3 UO=600  VTO=-0.250 NFS=300E9 TOX=33E-9
+  NSUB=3E15  VMAX=100E3 RS=2.0 RD=2.0 XJ=200E-9 THETA=0.11
+  ETA=0.06  KAPPA=2 LD=0.1E-6
+  CGSO=0.3E-9 CGDO=0.3E-9 CBD=0.7E-12 CBS=0.5E-12

.ENDS
*
*$
*---------------------------------------------------------------------------
*
*   BF908R SPICE MODEL OCTOBER 1993 PHILIPS SEMICONDUCTORS
*   ENVELOPE    SOT143R 
*   1.: SOURCE;  2.: DRAIN;  3.: GATE 2;  4.: GATE 1;
.SUBCKT BF908R/PLP 1 2 3 4
        L10          1 10 0.12N
        L20          2 20 0.12N
        L30          3 30 0.12N
        L40          4 40 0.12N
        L11         10 11 1.20N
        L21         20 21 1.20N
        L31         30 31 1.20N
        L41         40 41 1.20N
        C13         10 30 0.085P
        C14         10 40 0.085P
        C21         10 20 0.017P
        C23         20 30 0.085P
        C24         20 40 0.005P
        D11        42 11   ZENER
        D12        42 41   ZENER
        D21        32 11   ZENER
        D22        32 31   ZENER
        RS         10 12 100
        MOS1       61 41 11 12 GATE1 L=1.1E-6 W=1750E-6
        MOS2       21 31 61 12 GATE2 L=2.0E-6 W=1750E-6

.MODEL  ZENER
+  D  BV=10 CJO=1.2E-12  RS=10

.MODEL  GATE1
+  NMOS LEVEL=3 UO=600  VTO=-0.250 NFS=300E9 TOX=33E-9

+  NSUB=3E15 VMAX=140E3 RS=2.0 RD=2.0 XJ=200E-9 THETA=0.11
+  ETA=0.06 KAPPA=2 LD=0.1E-6
+  CGSO=0.3E-9 CGDO=0.3E-9 CBD=0.5E-12 CBS=0.5E-12

.MODEL  GATE2
+  NMOS LEVEL=3 UO=600  VTO=-0.250 NFS=300E9 TOX=33E-9
+  NSUB=3E15  VMAX=100E3 RS=2.0 RD=2.0 XJ=200E-9 THETA=0.11
+  ETA=0.06  KAPPA=2 LD=0.1E-6
+  CGSO=0.3E-9 CGDO=0.3E-9 CBD=0.7E-12 CBS=0.5E-12

.ENDS
*
*$
*---------------------------------------------------------------------------
*
*   BF908WR SPICE MODEL OCTOBER 1993 PHILIPS SEMICONDUCTORS
*   ENVELOPE    SOT343 
*   1.: SOURCE;  2.: DRAIN;  3.: GATE 2;  4.: GATE 1;
.SUBCKT BF908WR/PLP 1 2 3 4
        L10          1 10 0.10N
        L20          2 20 0.34N
        L30          3 30 0.34N
        L40          4 40 0.34N
        L11         10 11 1.10N
        L21         20 21 1.10N
        L31         30 31 1.10N
        L41         40 41 1.10N
        C13         10 30 0.060P
        C14         10 40 0.060P
        C21         10 20 0.050P
        C23         20 30 0.070P
        C24         20 40 0.005P
        D11        42 11   ZENER
        D12        42 41   ZENER
        D21        32 11   ZENER
        D22        32 31   ZENER
        RS         10 12 100
        MOS1       61 41 11 12 GATE1 L=1.1E-6 W=1750E-6
        MOS2       21 31 61 12 GATE2 L=2.0E-6 W=1750E-6

.MODEL  ZENER
+  D  BV=10 CJO=1.2E-12  RS=10

.MODEL  GATE1
+  NMOS LEVEL=3 UO=600  VTO=-0.250 NFS=300E9 TOX=33E-9
+  NSUB=3E15 VMAX=140E3 RS=2.0 RD=2.0 XJ=200E-9 THETA=0.11
+  ETA=0.06 KAPPA=2 LD=0.1E-6
+  CGSO=0.3E-9 CGDO=0.3E-9 CBD=0.5E-12 CBS=0.5E-12

.MODEL  GATE2
+  NMOS LEVEL=3 UO=600  VTO=-0.250 NFS=300E9 TOX=33E-9
+  NSUB=3E15  VMAX=100E3 RS=2.0 RD=2.0 XJ=200E-9 THETA=0.11
+  ETA=0.06  KAPPA=2 LD=0.1E-6
+  CGSO=0.3E-9 CGDO=0.3E-9 CBD=0.7E-12 CBS=0.5E-12

.ENDS
*
*$
*---------------------------------------------------------------------------
*
*   BF909 SPICE MODEL OCTOBER 1993 PHILIPS SEMICONDUCTORS
*   ENVELOPE    SOT143 
*   1.: SOURCE;  2.: DRAIN;  3.: GATE 2;  4.: GATE 1;
.SUBCKT BF909/PLP 1 2 3 4
        L10          1 10 0.12N
        L20          2 20 0.12N
        L30          3 30 0.12N
        L40          4 40 0.12N
        L11         10 11 1.20N
        L21         20 21 1.20N
        L31         30 31 1.20N
        L41         40 41 1.20N
        C13         10 30 0.085P
        C14         10 40 0.085P
        C21         10 20 0.017P
        C23         20 30 0.085P
        C24         20 40 0.005P
        D11         11 41   ZENER
        D22         11 31   ZENER
        RS          10 12 10
        MOS1A       61 41 11 12 GATE1 L=1.1E-6 W=1750E-6
        MOS2A       21 31 61 12 GATE2 L=2.0E-6 W=1750E-6
        MOS1B       71 41 11 12 GATE3 L=1.1E-6 W=   6E-6
        MOS2B       41 31 71 12 GATE4 L=4.0E-6 W=   6E-6

.MODEL  ZENER
+  D  BV=10 CJO=0.6E-12  RS=10

.MODEL  GATE1
+  NMOS LEVEL=3 UO=600  VTO=+0.700 NFS=300E9 TOX=33E-9
+  NSUB=3E15 VMAX=140E3 RS=2.0 RD=2.0 XJ=200E-9 THETA=0.11
+  ETA=0.06 KAPPA=2 LD=0.1E-6
+  CGSO=0.3E-9 CGDO=0.3E-9 CBD=0.5E-12 CBS=0.5E-12

.MODEL  GATE2
+  NMOS LEVEL=3 UO=600  VTO=+0.700 NFS=300E9 TOX=33E-9
+  NSUB=3E15  VMAX=100E3 RS=2.0 RD=2.0 XJ=200E-9 THETA=0.11
+  ETA=0.06  KAPPA=2 LD=0.1E-6
+  CGSO=0.3E-9 CGDO=0.3E-9 CBD=1.5E-12 CBS=0.7E-12

.MODEL  GATE3
+  NMOS LEVEL=3 UO=600  VTO=+0.700 NFS=300E9 TOX=33E-9
+  NSUB=3E15 VMAX=140E3 RS=400 RD=400 XJ=200E-9 THETA=0.11
+  ETA=0.06 KAPPA=2 LD=0.1E-6
+  CGSO=0.3E-9 CGDO=0.3E-9 CBD=0.1E-12 CBS=0.1E-12

.MODEL  GATE4
+  NMOS LEVEL=3 UO=600  VTO=+0.700 NFS=300E9 TOX=33E-9
+  NSUB=3E15  VMAX=100E3 RS=400 RD=400 XJ=200E-9 THETA=0.11
+  ETA=0.06  KAPPA=2 LD=0.1E-6
+  CGSO=0.3E-9 CGDO=0.3E-9 CBD=0.1E-12 CBS=0.1E-12


.ENDS
*
*$
*---------------------------------------------------------------------------
*
*   BF909R SPICE MODEL OCTOBER 1993 PHILIPS SEMICONDUCTORS
*   ENVELOPE    SOT143R 
*   1.: SOURCE;  2.: DRAIN;  3.: GATE 2;  4.: GATE 1;
.SUBCKT BF909R/PLP 1 2 3 4
        L10          1 10 0.12N
        L20          2 20 0.12N
        L30          3 30 0.12N
        L40          4 40 0.12N
        L11         10 11 1.20N
        L21         20 21 1.20N
        L31         30 31 1.20N
        L41         40 41 1.20N
        C13         10 30 0.085P
        C14         10 40 0.085P
        C21         10 20 0.017P
        C23         20 30 0.085P
        C24         20 40 0.005P
        D11         11 41   ZENER
        D22         11 31   ZENER
        RS          10 12 10
        MOS1A       61 41 11 12 GATE1 L=1.1E-6 W=1750E-6
        MOS2A       21 31 61 12 GATE2 L=2.0E-6 W=1750E-6
        MOS1B       71 41 11 12 GATE3 L=1.1E-6 W=   6E-6
        MOS2B       41 31 71 12 GATE4 L=4.0E-6 W=   6E-6

.MODEL  ZENER
+  D  BV=10 CJO=0.6E-12  RS=10

.MODEL  GATE1
+  NMOS LEVEL=3 UO=600  VTO=+0.700 NFS=300E9 TOX=33E-9
+  NSUB=3E15 VMAX=140E3 RS=2.0 RD=2.0 XJ=200E-9 THETA=0.11
+  ETA=0.06 KAPPA=2 LD=0.1E-6
+  CGSO=0.3E-9 CGDO=0.3E-9 CBD=0.5E-12 CBS=0.5E-12

.MODEL  GATE2
+  NMOS LEVEL=3 UO=600  VTO=+0.700 NFS=300E9 TOX=33E-9
+  NSUB=3E15  VMAX=100E3 RS=2.0 RD=2.0 XJ=200E-9 THETA=0.11
+  ETA=0.06  KAPPA=2 LD=0.1E-6
+  CGSO=0.3E-9 CGDO=0.3E-9 CBD=1.5E-12 CBS=0.7E-12

.MODEL  GATE3
+  NMOS LEVEL=3 UO=600  VTO=+0.700 NFS=300E9 TOX=33E-9
+  NSUB=3E15 VMAX=140E3 RS=400 RD=400 XJ=200E-9 THETA=0.11
+  ETA=0.06 KAPPA=2 LD=0.1E-6
+  CGSO=0.3E-9 CGDO=0.3E-9 CBD=0.1E-12 CBS=0.1E-12

.MODEL  GATE4
+  NMOS LEVEL=3 UO=600  VTO=+0.700 NFS=300E9 TOX=33E-9
+  NSUB=3E15  VMAX=100E3 RS=400 RD=400 XJ=200E-9 THETA=0.11
+  ETA=0.06  KAPPA=2 LD=0.1E-6
+  CGSO=0.3E-9 CGDO=0.3E-9 CBD=0.1E-12 CBS=0.1E-12


.ENDS
*
*$
*---------------------------------------------------------------------------
*
*   BF909WR SPICE MODEL OCTOBER 1993 PHILIPS SEMICONDUCTORS
*   ENVELOPE    SOT343 