Version 4
SHEET 1 880 680
WIRE 160 64 -320 64
WIRE 480 64 336 64
WIRE 496 64 480 64
WIRE 160 80 160 64
WIRE 336 128 336 64
WIRE 336 128 320 128
WIRE 320 144 320 128
WIRE -96 192 -192 192
WIRE 0 192 -96 192
WIRE 160 192 160 160
WIRE 160 192 0 192
WIRE 480 192 480 64
WIRE -192 224 -192 192
WIRE -96 224 -96 192
WIRE 160 224 160 192
WIRE 320 240 320 224
WIRE 336 240 320 240
WIRE 0 272 0 192
WIRE 160 320 160 304
WIRE 160 320 144 320
WIRE -192 336 -192 304
WIRE -96 336 -96 288
WIRE -96 336 -192 336
WIRE -48 336 -96 336
WIRE -320 368 -320 64
WIRE -192 368 -192 336
WIRE 144 368 144 320
WIRE -320 480 -320 448
WIRE -192 480 -192 432
WIRE -192 480 -320 480
WIRE 0 480 0 336
WIRE 0 480 -192 480
WIRE 144 480 144 432
WIRE 144 480 0 480
WIRE 208 480 144 480
WIRE 336 480 336 240
WIRE 336 480 288 480
WIRE 480 480 480 272
WIRE 480 480 336 480
WIRE -320 496 -320 480
FLAG -320 496 0
FLAG 496 64 Out
SYMBOL voltage -320 352 R0
WINDOW 3 -14 59 Left 0
SYMATTR Value 12
SYMATTR InstName Vcc
SYMBOL ind2 144 176 M180
WINDOW 0 36 80 Left 0
WINDOW 3 36 40 Left 0
SYMATTR InstName L1
SYMATTR Value 2m
SYMBOL ind2 144 320 M180
WINDOW 0 36 80 Left 0
WINDOW 3 36 40 Left 0
SYMATTR InstName L2
SYMATTR Value 2m
SYMBOL ind2 336 240 R180
WINDOW 0 36 80 Left 0
WINDOW 3 36 40 Left 0
SYMATTR InstName L3
SYMATTR Value 1
SYMBOL diode -80 288 R180
WINDOW 0 24 72 Left 0
WINDOW 3 24 0 Invisible 0
SYMATTR InstName D1
SYMATTR Value MURS320
SYMBOL res -208 208 R0
SYMATTR InstName R1
SYMATTR Value 1K
SYMBOL cap -208 368 R0
SYMATTR InstName C1
SYMATTR Value 6µ8
SYMATTR SpiceLine V=6.3 Irms=10.742 Rser=0.003 MTBF=0 Lser=0 mfg="KEMET" pn="C0805C685K9PAC" type="X5R" ppPkg=1
SYMBOL Robertugo\\Thyr_All -16 272 R0
SYMATTR InstName U1
SYMBOL cap 128 368 R0
SYMATTR InstName C2
SYMATTR Value 10µ
SYMATTR SpiceLine V=25 Irms=0 Rser=0.001 MTBF=0 Lser=0 mfg="TDK" pn="C575OX7RIE106M" type="X7R" ppPkg=1
SYMBOL res 464 176 R0
SYMATTR InstName RL
SYMATTR Value 10k
SYMBOL res 304 464 R90
WINDOW 0 17 115 VBottom 0
WINDOW 3 -10 3 VTop 0
SYMATTR InstName R2
SYMATTR Value 1g
TEXT 248 80 VRight 0 !K1 L1 L2 L3 .9
TEXT -168 144 Left 0 !.tran 0 20m 0 startup
