.SUBCKT BLF245_28V_50MA 1 2 3 
* Filename:       BLF245_28V_50mA.s2p            
* Philips part #: BLF245                                                              !date: 22-05-2003
*Vdd=28V ; Idq=50 mA
*
*
*
*
*
*D:\Vee measurements\measurement data\VDMOST\BLF245\28V_50mA_#1
*  HZ S MA R 50
* Z1=50.000000 Z2=50.000000

R1N 1 10 -5.000000e+001
R1P 10 11 1.000000e+002
R2N 2 20 -5.000000e+001
R2P 20 21 1.000000e+002

* S11 FREQ MAG PHASE
E11 11 12 FREQ {V(10,3)}= MAG 
+( 5.000000e+006HZ,  9.500000e-001, -4.050000e+001)
+( 1.000000e+007HZ,  8.600000e-001, -7.130000e+001)
+( 1.500000e+007HZ,  8.100000e-001, -9.330000e+001)
+( 2.000000e+007HZ,  7.700000e-001, -1.086000e+002)
+( 2.500000e+007HZ,  7.500000e-001, -1.192000e+002)
+( 3.000000e+007HZ,  7.300000e-001, -1.268000e+002)
+( 3.500000e+007HZ,  7.300000e-001, -1.324000e+002)
+( 4.000000e+007HZ,  7.300000e-001, -1.368000e+002)
+( 4.500000e+007HZ,  7.300000e-001, -1.402000e+002)
+( 5.000000e+007HZ,  7.400000e-001, -1.429000e+002)
+( 5.500000e+007HZ,  7.500000e-001, -1.452000e+002)
+( 6.000000e+007HZ,  7.500000e-001, -1.471000e+002)
+( 6.500000e+007HZ,  7.600000e-001, -1.487000e+002)
+( 7.000000e+007HZ,  7.600000e-001, -1.500000e+002)
+( 7.500000e+007HZ,  7.700000e-001, -1.512000e+002)
+( 8.000000e+007HZ,  7.800000e-001, -1.523000e+002)
+( 8.500000e+007HZ,  7.900000e-001, -1.534000e+002)
+( 9.000000e+007HZ,  8.000000e-001, -1.545000e+002)
+( 9.500000e+007HZ,  8.100000e-001, -1.556000e+002)
+( 1.000000e+008HZ,  8.100000e-001, -1.568000e+002)
+( 1.050000e+008HZ,  8.200000e-001, -1.578000e+002)
+( 1.100000e+008HZ,  8.200000e-001, -1.589000e+002)
+( 1.150000e+008HZ,  8.300000e-001, -1.598000e+002)
+( 1.200000e+008HZ,  8.300000e-001, -1.607000e+002)
+( 1.250000e+008HZ,  8.400000e-001, -1.615000e+002)
+( 1.300000e+008HZ,  8.500000e-001, -1.622000e+002)
+( 1.350000e+008HZ,  8.500000e-001, -1.628000e+002)
+( 1.400000e+008HZ,  8.600000e-001, -1.634000e+002)
+( 1.450000e+008HZ,  8.600000e-001, -1.640000e+002)
+( 1.500000e+008HZ,  8.700000e-001, -1.645000e+002)
+( 1.550000e+008HZ,  8.800000e-001, -1.650000e+002)
+( 1.600000e+008HZ,  8.800000e-001, -1.656000e+002)
+( 1.650000e+008HZ,  8.900000e-001, -1.661000e+002)
+( 1.700000e+008HZ,  9.000000e-001, -1.668000e+002)
+( 1.750000e+008HZ,  9.000000e-001, -1.674000e+002)
+( 1.800000e+008HZ,  9.000000e-001, -1.680000e+002)
+( 1.850000e+008HZ,  9.100000e-001, -1.686000e+002)
+( 1.900000e+008HZ,  9.100000e-001, -1.693000e+002)
+( 1.950000e+008HZ,  9.100000e-001, -1.699000e+002)
+( 2.000000e+008HZ,  9.100000e-001, -1.705000e+002)
+( 2.050000e+008HZ,  9.100000e-001, -1.710000e+002)
+( 2.100000e+008HZ,  9.100000e-001, -1.716000e+002)
+( 2.150000e+008HZ,  9.200000e-001, -1.721000e+002)
+( 2.200000e+008HZ,  9.200000e-001, -1.725000e+002)
+( 2.250000e+008HZ,  9.200000e-001, -1.730000e+002)
+( 2.300000e+008HZ,  9.200000e-001, -1.734000e+002)
+( 2.350000e+008HZ,  9.200000e-001, -1.738000e+002)
+( 2.400000e+008HZ,  9.300000e-001, -1.742000e+002)
+( 2.450000e+008HZ,  9.300000e-001, -1.746000e+002)
+( 2.500000e+008HZ,  9.300000e-001, -1.750000e+002)
+( 2.550000e+008HZ,  9.400000e-001, -1.754000e+002)
+( 2.600000e+008HZ,  9.400000e-001, -1.758000e+002)
+( 2.650000e+008HZ,  9.400000e-001, -1.763000e+002)
+( 2.700000e+008HZ,  9.500000e-001, -1.768000e+002)
+( 2.750000e+008HZ,  9.500000e-001, -1.772000e+002)
+( 2.800000e+008HZ,  9.500000e-001, -1.777000e+002)
+( 2.850000e+008HZ,  9.500000e-001, -1.781000e+002)
+( 2.900000e+008HZ,  9.500000e-001, -1.785000e+002)
+( 2.950000e+008HZ,  9.500000e-001, -1.789000e+002)
+( 3.000000e+008HZ,  9.500000e-001, -1.793000e+002)
+( 3.050000e+008HZ,  9.500000e-001, -1.796000e+002)
+( 3.100000e+008HZ,  9.500000e-001, -1.800000e+002)
+( 3.150000e+008HZ,  9.500000e-001, -1.803000e+002)
+( 3.200000e+008HZ,  9.500000e-001, -1.807000e+002)
+( 3.250000e+008HZ,  9.500000e-001, -1.810000e+002)
+( 3.300000e+008HZ,  9.500000e-001, -1.813000e+002)
+( 3.350000e+008HZ,  9.500000e-001, -1.816000e+002)
+( 3.400000e+008HZ,  9.500000e-001, -1.820000e+002)
+( 3.450000e+008HZ,  9.600000e-001, -1.823000e+002)
+( 3.500000e+008HZ,  9.600000e-001, -1.827000e+002)
+( 3.550000e+008HZ,  9.600000e-001, -1.830000e+002)
+( 3.600000e+008HZ,  9.600000e-001, -1.834000e+002)
+( 3.650000e+008HZ,  9.600000e-001, -1.838000e+002)
+( 3.700000e+008HZ,  9.600000e-001, -1.842000e+002)
+( 3.750000e+008HZ,  9.600000e-001, -1.845000e+002)
+( 3.800000e+008HZ,  9.600000e-001, -1.848000e+002)
+( 3.850000e+008HZ,  9.600000e-001, -1.852000e+002)
+( 3.900000e+008HZ,  9.600000e-001, -1.855000e+002)
+( 3.950000e+008HZ,  9.600000e-001, -1.858000e+002)
+( 4.000000e+008HZ,  9.600000e-001, -1.861000e+002)
+( 4.050000e+008HZ,  9.600000e-001, -1.863000e+002)
+( 4.100000e+008HZ,  9.600000e-001, -1.866000e+002)
+( 4.150000e+008HZ,  9.600000e-001, -1.869000e+002)
+( 4.200000e+008HZ,  9.600000e-001, -1.872000e+002)
+( 4.250000e+008HZ,  9.600000e-001, -1.874000e+002)
+( 4.300000e+008HZ,  9.600000e-001, -1.877000e+002)
+( 4.350000e+008HZ,  9.600000e-001, -1.880000e+002)
+( 4.400000e+008HZ,  9.700000e-001, -1.883000e+002)
+( 4.450000e+008HZ,  9.700000e-001, -1.887000e+002)
+( 4.500000e+008HZ,  9.700000e-001, -1.890000e+002)
+( 4.550000e+008HZ,  9.700000e-001, -1.893000e+002)
+( 4.600000e+008HZ,  9.700000e-001, -1.896000e+002)
+( 4.650000e+008HZ,  9.700000e-001, -1.900000e+002)
+( 4.700000e+008HZ,  9.700000e-001, -1.903000e+002)
+( 4.750000e+008HZ,  9.700000e-001, -1.906000e+002)
+( 4.800000e+008HZ,  9.700000e-001, -1.909000e+002)
+( 4.850000e+008HZ,  9.700000e-001, -1.912000e+002)
+( 4.900000e+008HZ,  9.700000e-001, -1.914000e+002)
+( 4.950000e+008HZ,  9.600000e-001, -1.916000e+002)
+( 5.000000e+008HZ,  9.600000e-001, -1.919000e+002)
+( 5.050000e+008HZ,  9.600000e-001, -1.921000e+002)
+( 5.100000e+008HZ,  9.600000e-001, -1.924000e+002)
+( 5.150000e+008HZ,  9.600000e-001, -1.926000e+002)
+( 5.200000e+008HZ,  9.600000e-001, -1.929000e+002)
+( 5.250000e+008HZ,  9.700000e-001, -1.932000e+002)
+( 5.300000e+008HZ,  9.700000e-001, -1.935000e+002)
+( 5.350000e+008HZ,  9.700000e-001, -1.938000e+002)
+( 5.400000e+008HZ,  9.700000e-001, -1.941000e+002)
+( 5.450000e+008HZ,  9.700000e-001, -1.944000e+002)
+( 5.500000e+008HZ,  9.700000e-001, -1.947000e+002)
+( 5.550000e+008HZ,  9.700000e-001, -1.950000e+002)
+( 5.600000e+008HZ,  9.700000e-001, -1.953000e+002)
+( 5.650000e+008HZ,  9.700000e-001, -1.956000e+002)
+( 5.700000e+008HZ,  9.700000e-001, -1.959000e+002)
+( 5.750000e+008HZ,  9.700000e-001, -1.961000e+002)
+( 5.800000e+008HZ,  9.700000e-001, -1.964000e+002)
+( 5.850000e+008HZ,  9.600000e-001, -1.966000e+002)
+( 5.900000e+008HZ,  9.600000e-001, -1.968000e+002)
+( 5.950000e+008HZ,  9.600000e-001, -1.971000e+002)
+( 6.000000e+008HZ,  9.600000e-001, -1.973000e+002)
+( 6.050000e+008HZ,  9.600000e-001, -1.975000e+002)
+( 6.100000e+008HZ,  9.600000e-001, -1.978000e+002)
+( 6.150000e+008HZ,  9.600000e-001, -1.981000e+002)
+( 6.200000e+008HZ,  9.600000e-001, -1.983000e+002)
+( 6.250000e+008HZ,  9.600000e-001, -1.986000e+002)
+( 6.300000e+008HZ,  9.600000e-001, -1.989000e+002)
+( 6.350000e+008HZ,  9.600000e-001, -1.992000e+002)
+( 6.400000e+008HZ,  9.600000e-001, -1.995000e+002)
+( 6.450000e+008HZ,  9.600000e-001, -1.998000e+002)
+( 6.500000e+008HZ,  9.700000e-001, -2.001000e+002)
+( 6.550000e+008HZ,  9.600000e-001, -2.004000e+002)
+( 6.600000e+008HZ,  9.600000e-001, -2.006000e+002)
+( 6.650000e+008HZ,  9.600000e-001, -2.009000e+002)
+( 6.700000e+008HZ,  9.600000e-001, -2.011000e+002)
+( 6.750000e+008HZ,  9.600000e-001, -2.014000e+002)
+( 6.800000e+008HZ,  9.600000e-001, -2.016000e+002)
+( 6.850000e+008HZ,  9.600000e-001, -2.018000e+002)
+( 6.900000e+008HZ,  9.600000e-001, -2.020000e+002)
+( 6.950000e+008HZ,  9.600000e-001, -2.023000e+002)
+( 7.000000e+008HZ,  9.600000e-001, -2.025000e+002)
+( 7.050000e+008HZ,  9.600000e-001, -2.028000e+002)
+( 7.100000e+008HZ,  9.600000e-001, -2.030000e+002)
+( 7.150000e+008HZ,  9.600000e-001, -2.032000e+002)
+( 7.200000e+008HZ,  9.600000e-001, -2.036000e+002)
+( 7.250000e+008HZ,  9.600000e-001, -2.039000e+002)
+( 7.300000e+008HZ,  9.600000e-001, -2.042000e+002)
+( 7.350000e+008HZ,  9.600000e-001, -2.045000e+002)
+( 7.400000e+008HZ,  9.600000e-001, -2.048000e+002)
+( 7.450000e+008HZ,  9.600000e-001, -2.050000e+002)
+( 7.500000e+008HZ,  9.600000e-001, -2.053000e+002)
+( 7.550000e+008HZ,  9.600000e-001, -2.056000e+002)
+( 7.600000e+008HZ,  9.600000e-001, -2.059000e+002)
+( 7.650000e+008HZ,  9.500000e-001, -2.061000e+002)
+( 7.700000e+008HZ,  9.500000e-001, -2.063000e+002)
+( 7.750000e+008HZ,  9.500000e-001, -2.065000e+002)
+( 7.800000e+008HZ,  9.500000e-001, -2.068000e+002)
+( 7.850000e+008HZ,  9.500000e-001, -2.070000e+002)
+( 7.900000e+008HZ,  9.500000e-001, -2.072000e+002)
+( 7.950000e+008HZ,  9.500000e-001, -2.074000e+002)
+( 8.000000e+008HZ,  9.400000e-001, -2.076000e+002)
+( 8.050000e+008HZ,  9.400000e-001, -2.078000e+002)
+( 8.100000e+008HZ,  9.400000e-001, -2.079000e+002)
+( 8.150000e+008HZ,  9.400000e-001, -2.081000e+002)
+( 8.200000e+008HZ,  9.400000e-001, -2.083000e+002)
+( 8.250000e+008HZ,  9.400000e-001, -2.085000e+002)
+( 8.300000e+008HZ,  9.400000e-001, -2.087000e+002)
+( 8.350000e+008HZ,  9.400000e-001, -2.089000e+002)
+( 8.400000e+008HZ,  9.400000e-001, -2.091000e+002)
+( 8.450000e+008HZ,  9.400000e-001, -2.093000e+002)
+( 8.500000e+008HZ,  9.500000e-001, -2.096000e+002)
+( 8.550000e+008HZ,  9.500000e-001, -2.098000e+002)
+( 8.600000e+008HZ,  9.500000e-001, -2.101000e+002)
+( 8.650000e+008HZ,  9.500000e-001, -2.103000e+002)
+( 8.700000e+008HZ,  9.500000e-001, -2.105000e+002)
+( 8.750000e+008HZ,  9.500000e-001, -2.108000e+002)
+( 8.800000e+008HZ,  9.500000e-001, -2.110000e+002)
+( 8.850000e+008HZ,  9.500000e-001, -2.112000e+002)
+( 8.900000e+008HZ,  9.500000e-001, -2.114000e+002)
+( 8.950000e+008HZ,  9.500000e-001, -2.116000e+002)
+( 9.000000e+008HZ,  9.500000e-001, -2.119000e+002)
+( 9.050000e+008HZ,  9.500000e-001, -2.122000e+002)
+( 9.100000e+008HZ,  9.500000e-001, -2.125000e+002)
+( 9.150000e+008HZ,  9.500000e-001, -2.128000e+002)
+( 9.200000e+008HZ,  9.500000e-001, -2.130000e+002)
+( 9.250000e+008HZ,  9.500000e-001, -2.133000e+002)
+( 9.300000e+008HZ,  9.500000e-001, -2.137000e+002)
+( 9.350000e+008HZ,  9.500000e-001, -2.140000e+002)
+( 9.400000e+008HZ,  9.500000e-001, -2.143000e+002)
+( 9.450000e+008HZ,  9.500000e-001, -2.146000e+002)
+( 9.500000e+008HZ,  9.500000e-001, -2.148000e+002)
+( 9.550000e+008HZ,  9.500000e-001, -2.151000e+002)
+( 9.600000e+008HZ,  9.400000e-001, -2.154000e+002)
+( 9.650000e+008HZ,  9.500000e-001, -2.156000e+002)
+( 9.700000e+008HZ,  9.500000e-001, -2.158000e+002)
+( 9.750000e+008HZ,  9.400000e-001, -2.160000e+002)
+( 9.800000e+008HZ,  9.700000e-001, -2.161000e+002)
+( 9.850000e+008HZ,  9.600000e-001, -2.165000e+002)
+( 9.900000e+008HZ,  9.500000e-001, -2.167000e+002)
+( 9.950000e+008HZ,  9.500000e-001, -2.169000e+002)
+( 1.000000e+009HZ,  9.500000e-001, -2.171000e+002)

* S12 FREQ MAG PHASE
E12 12 3 FREQ {V(20,3)}= MAG 
+( 5.000000e+006HZ,  2.000000e-002,  6.380000e+001)
+( 1.000000e+007HZ,  4.000000e-002,  4.440000e+001)
+( 1.500000e+007HZ,  5.000000e-002,  3.080000e+001)
+( 2.000000e+007HZ,  5.000000e-002,  2.170000e+001)
+( 2.500000e+007HZ,  5.000000e-002,  1.460000e+001)
+( 3.000000e+007HZ,  5.000000e-002,  9.100000e+000)
+( 3.500000e+007HZ,  5.000000e-002,  4.700000e+000)
+( 4.000000e+007HZ,  5.000000e-002,  1.000000e+000)
+( 4.500000e+007HZ,  5.000000e-002, -2.100000e+000)
+( 5.000000e+007HZ,  5.000000e-002, -5.000000e+000)
+( 5.500000e+007HZ,  5.000000e-002, -7.400000e+000)
+( 6.000000e+007HZ,  5.000000e-002, -9.600000e+000)
+( 6.500000e+007HZ,  5.000000e-002, -1.160000e+001)
+( 7.000000e+007HZ,  5.000000e-002, -1.330000e+001)
+( 7.500000e+007HZ,  4.000000e-002, -1.480000e+001)
+( 8.000000e+007HZ,  4.000000e-002, -1.630000e+001)
+( 8.500000e+007HZ,  4.000000e-002, -1.760000e+001)
+( 9.000000e+007HZ,  4.000000e-002, -1.880000e+001)
+( 9.500000e+007HZ,  4.000000e-002, -1.990000e+001)
+( 1.000000e+008HZ,  4.000000e-002, -2.090000e+001)
+( 1.050000e+008HZ,  4.000000e-002, -2.180000e+001)
+( 1.100000e+008HZ,  3.000000e-002, -2.250000e+001)
+( 1.150000e+008HZ,  3.000000e-002, -2.300000e+001)
+( 1.200000e+008HZ,  3.000000e-002, -2.320000e+001)
+( 1.250000e+008HZ,  3.000000e-002, -2.320000e+001)
+( 1.300000e+008HZ,  3.000000e-002, -2.290000e+001)
+( 1.350000e+008HZ,  2.000000e-002, -2.240000e+001)
+( 1.400000e+008HZ,  2.000000e-002, -2.150000e+001)
+( 1.450000e+008HZ,  2.000000e-002, -2.040000e+001)
+( 1.500000e+008HZ,  2.000000e-002, -1.890000e+001)
+( 1.550000e+008HZ,  2.000000e-002, -1.700000e+001)
+( 1.600000e+008HZ,  2.000000e-002, -1.490000e+001)
+( 1.650000e+008HZ,  2.000000e-002, -1.210000e+001)
+( 1.700000e+008HZ,  2.000000e-002, -8.900000e+000)
+( 1.750000e+008HZ,  1.000000e-002, -5.000000e+000)
+( 1.800000e+008HZ,  1.000000e-002, -7.000000e-001)
+( 1.850000e+008HZ,  1.000000e-002,  4.400000e+000)
+( 1.900000e+008HZ,  1.000000e-002,  1.030000e+001)
+( 1.950000e+008HZ,  1.000000e-002,  1.660000e+001)
+( 2.000000e+008HZ,  1.000000e-002,  2.330000e+001)
+( 2.050000e+008HZ,  1.000000e-002,  3.020000e+001)
+( 2.100000e+008HZ,  1.000000e-002,  3.700000e+001)
+( 2.150000e+008HZ,  1.000000e-002,  4.350000e+001)
+( 2.200000e+008HZ,  1.000000e-002,  4.940000e+001)
+( 2.250000e+008HZ,  1.000000e-002,  5.470000e+001)
+( 2.300000e+008HZ,  1.000000e-002,  5.940000e+001)
+( 2.350000e+008HZ,  1.000000e-002,  6.350000e+001)
+( 2.400000e+008HZ,  2.000000e-002,  6.710000e+001)
+( 2.450000e+008HZ,  2.000000e-002,  7.030000e+001)
+( 2.500000e+008HZ,  2.000000e-002,  7.290000e+001)
+( 2.550000e+008HZ,  2.000000e-002,  7.520000e+001)
+( 2.600000e+008HZ,  2.000000e-002,  7.720000e+001)
+( 2.650000e+008HZ,  2.000000e-002,  7.880000e+001)
+( 2.700000e+008HZ,  2.000000e-002,  8.020000e+001)
+( 2.750000e+008HZ,  2.000000e-002,  8.130000e+001)
+( 2.800000e+008HZ,  2.000000e-002,  8.220000e+001)
+( 2.850000e+008HZ,  3.000000e-002,  8.290000e+001)
+( 2.900000e+008HZ,  3.000000e-002,  8.350000e+001)
+( 2.950000e+008HZ,  3.000000e-002,  8.400000e+001)
+( 3.000000e+008HZ,  3.000000e-002,  8.450000e+001)
+( 3.050000e+008HZ,  3.000000e-002,  8.490000e+001)
+( 3.100000e+008HZ,  3.000000e-002,  8.530000e+001)
+( 3.150000e+008HZ,  3.000000e-002,  8.570000e+001)
+( 3.200000e+008HZ,  3.000000e-002,  8.600000e+001)
+( 3.250000e+008HZ,  3.000000e-002,  8.640000e+001)
+( 3.300000e+008HZ,  4.000000e-002,  8.670000e+001)
+( 3.350000e+008HZ,  4.000000e-002,  8.700000e+001)
+( 3.400000e+008HZ,  4.000000e-002,  8.720000e+001)
+( 3.450000e+008HZ,  4.000000e-002,  8.750000e+001)
+( 3.500000e+008HZ,  4.000000e-002,  8.770000e+001)
+( 3.550000e+008HZ,  4.000000e-002,  8.790000e+001)
+( 3.600000e+008HZ,  4.000000e-002,  8.800000e+001)
+( 3.650000e+008HZ,  4.000000e-002,  8.810000e+001)
+( 3.700000e+008HZ,  5.000000e-002,  8.820000e+001)
+( 3.750000e+008HZ,  5.000000e-002,  8.820000e+001)
+( 3.800000e+008HZ,  5.000000e-002,  8.810000e+001)
+( 3.850000e+008HZ,  5.000000e-002,  8.800000e+001)
+( 3.900000e+008HZ,  5.000000e-002,  8.790000e+001)
+( 3.950000e+008HZ,  5.000000e-002,  8.780000e+001)
+( 4.000000e+008HZ,  5.000000e-002,  8.760000e+001)
+( 4.050000e+008HZ,  5.000000e-002,  8.750000e+001)
+( 4.100000e+008HZ,  5.000000e-002,  8.740000e+001)
+( 4.150000e+008HZ,  6.000000e-002,  8.730000e+001)
+( 4.200000e+008HZ,  6.000000e-002,  8.730000e+001)
+( 4.250000e+008HZ,  6.000000e-002,  8.730000e+001)
+( 4.300000e+008HZ,  6.000000e-002,  8.730000e+001)
+( 4.350000e+008HZ,  6.000000e-002,  8.740000e+001)
+( 4.400000e+008HZ,  6.000000e-002,  8.750000e+001)
+( 4.450000e+008HZ,  6.000000e-002,  8.750000e+001)
+( 4.500000e+008HZ,  6.000000e-002,  8.760000e+001)
+( 4.550000e+008HZ,  6.000000e-002,  8.770000e+001)
+( 4.600000e+008HZ,  7.000000e-002,  8.770000e+001)
+( 4.650000e+008HZ,  7.000000e-002,  8.760000e+001)
+( 4.700000e+008HZ,  7.000000e-002,  8.750000e+001)
+( 4.750000e+008HZ,  7.000000e-002,  8.730000e+001)
+( 4.800000e+008HZ,  7.000000e-002,  8.700000e+001)
+( 4.850000e+008HZ,  7.000000e-002,  8.670000e+001)
+( 4.900000e+008HZ,  7.000000e-002,  8.640000e+001)
+( 4.950000e+008HZ,  7.000000e-002,  8.620000e+001)
+( 5.000000e+008HZ,  7.000000e-002,  8.600000e+001)
+( 5.050000e+008HZ,  8.000000e-002,  8.590000e+001)
+( 5.100000e+008HZ,  8.000000e-002,  8.580000e+001)
+( 5.150000e+008HZ,  8.000000e-002,  8.580000e+001)
+( 5.200000e+008HZ,  8.000000e-002,  8.580000e+001)
+( 5.250000e+008HZ,  8.000000e-002,  8.580000e+001)
+( 5.300000e+008HZ,  8.000000e-002,  8.590000e+001)
+( 5.350000e+008HZ,  8.000000e-002,  8.590000e+001)
+( 5.400000e+008HZ,  8.000000e-002,  8.590000e+001)
+( 5.450000e+008HZ,  8.000000e-002,  8.590000e+001)
+( 5.500000e+008HZ,  8.000000e-002,  8.580000e+001)
+( 5.550000e+008HZ,  9.000000e-002,  8.570000e+001)
+( 5.600000e+008HZ,  9.000000e-002,  8.560000e+001)
+( 5.650000e+008HZ,  9.000000e-002,  8.540000e+001)
+( 5.700000e+008HZ,  9.000000e-002,  8.510000e+001)
+( 5.750000e+008HZ,  9.000000e-002,  8.490000e+001)
+( 5.800000e+008HZ,  9.000000e-002,  8.460000e+001)
+( 5.850000e+008HZ,  9.000000e-002,  8.430000e+001)
+( 5.900000e+008HZ,  9.000000e-002,  8.410000e+001)
+( 5.950000e+008HZ,  9.000000e-002,  8.390000e+001)
+( 6.000000e+008HZ,  1.000000e-001,  8.370000e+001)
+( 6.050000e+008HZ,  1.000000e-001,  8.360000e+001)
+( 6.100000e+008HZ,  1.000000e-001,  8.360000e+001)
+( 6.150000e+008HZ,  1.000000e-001,  8.370000e+001)
+( 6.200000e+008HZ,  1.000000e-001,  8.370000e+001)
+( 6.250000e+008HZ,  1.000000e-001,  8.390000e+001)
+( 6.300000e+008HZ,  1.000000e-001,  8.400000e+001)
+( 6.350000e+008HZ,  1.000000e-001,  8.420000e+001)
+( 6.400000e+008HZ,  1.000000e-001,  8.420000e+001)
+( 6.450000e+008HZ,  1.000000e-001,  8.420000e+001)
+( 6.500000e+008HZ,  1.100000e-001,  8.410000e+001)
+( 6.550000e+008HZ,  1.100000e-001,  8.380000e+001)
+( 6.600000e+008HZ,  1.100000e-001,  8.340000e+001)
+( 6.650000e+008HZ,  1.100000e-001,  8.300000e+001)
+( 6.700000e+008HZ,  1.100000e-001,  8.250000e+001)
+( 6.750000e+008HZ,  1.100000e-001,  8.210000e+001)
+( 6.800000e+008HZ,  1.100000e-001,  8.170000e+001)
+( 6.850000e+008HZ,  1.100000e-001,  8.140000e+001)
+( 6.900000e+008HZ,  1.100000e-001,  8.120000e+001)
+( 6.950000e+008HZ,  1.100000e-001,  8.110000e+001)
+( 7.000000e+008HZ,  1.100000e-001,  8.110000e+001)
+( 7.050000e+008HZ,  1.100000e-001,  8.130000e+001)
+( 7.100000e+008HZ,  1.200000e-001,  8.150000e+001)
+( 7.150000e+008HZ,  1.200000e-001,  8.170000e+001)
+( 7.200000e+008HZ,  1.200000e-001,  8.200000e+001)
+( 7.250000e+008HZ,  1.200000e-001,  8.220000e+001)
+( 7.300000e+008HZ,  1.200000e-001,  8.240000e+001)
+( 7.350000e+008HZ,  1.200000e-001,  8.240000e+001)
+( 7.400000e+008HZ,  1.200000e-001,  8.230000e+001)
+( 7.450000e+008HZ,  1.300000e-001,  8.210000e+001)
+( 7.500000e+008HZ,  1.300000e-001,  8.170000e+001)
+( 7.550000e+008HZ,  1.300000e-001,  8.130000e+001)
+( 7.600000e+008HZ,  1.300000e-001,  8.080000e+001)
+( 7.650000e+008HZ,  1.300000e-001,  8.030000e+001)
+( 7.700000e+008HZ,  1.300000e-001,  7.990000e+001)
+( 7.750000e+008HZ,  1.300000e-001,  7.950000e+001)
+( 7.800000e+008HZ,  1.300000e-001,  7.920000e+001)
+( 7.850000e+008HZ,  1.300000e-001,  7.900000e+001)
+( 7.900000e+008HZ,  1.300000e-001,  7.880000e+001)
+( 7.950000e+008HZ,  1.300000e-001,  7.880000e+001)
+( 8.000000e+008HZ,  1.300000e-001,  7.880000e+001)
+( 8.050000e+008HZ,  1.300000e-001,  7.900000e+001)
+( 8.100000e+008HZ,  1.300000e-001,  7.920000e+001)
+( 8.150000e+008HZ,  1.300000e-001,  7.950000e+001)
+( 8.200000e+008HZ,  1.400000e-001,  7.990000e+001)
+( 8.250000e+008HZ,  1.400000e-001,  8.030000e+001)
+( 8.300000e+008HZ,  1.400000e-001,  8.060000e+001)
+( 8.350000e+008HZ,  1.400000e-001,  8.080000e+001)
+( 8.400000e+008HZ,  1.400000e-001,  8.100000e+001)
+( 8.450000e+008HZ,  1.400000e-001,  8.090000e+001)
+( 8.500000e+008HZ,  1.500000e-001,  8.060000e+001)
+( 8.550000e+008HZ,  1.500000e-001,  8.010000e+001)
+( 8.600000e+008HZ,  1.500000e-001,  7.960000e+001)
+( 8.650000e+008HZ,  1.500000e-001,  7.900000e+001)
+( 8.700000e+008HZ,  1.500000e-001,  7.840000e+001)
+( 8.750000e+008HZ,  1.500000e-001,  7.790000e+001)
+( 8.800000e+008HZ,  1.500000e-001,  7.740000e+001)
+( 8.850000e+008HZ,  1.500000e-001,  7.700000e+001)
+( 8.900000e+008HZ,  1.500000e-001,  7.660000e+001)
+( 8.950000e+008HZ,  1.500000e-001,  7.580000e+001)
+( 9.000000e+008HZ,  1.500000e-001,  7.520000e+001)
+( 9.050000e+008HZ,  1.500000e-001,  7.570000e+001)
+( 9.100000e+008HZ,  1.500000e-001,  7.570000e+001)
+( 9.150000e+008HZ,  1.500000e-001,  7.610000e+001)
+( 9.200000e+008HZ,  1.500000e-001,  7.650000e+001)
+( 9.250000e+008HZ,  1.600000e-001,  7.690000e+001)
+( 9.300000e+008HZ,  1.600000e-001,  7.720000e+001)
+( 9.350000e+008HZ,  1.600000e-001,  7.740000e+001)
+( 9.400000e+008HZ,  1.600000e-001,  7.720000e+001)
+( 9.450000e+008HZ,  1.600000e-001,  7.380000e+001)
+( 9.500000e+008HZ,  1.600000e-001,  7.490000e+001)
+( 9.550000e+008HZ,  1.500000e-001,  7.400000e+001)
+( 9.600000e+008HZ,  1.400000e-001,  2.160000e+002)
+( 9.650000e+008HZ,  1.500000e-001,  7.560000e+001)
+( 9.700000e+008HZ,  1.400000e-001,  7.070000e+001)
+( 9.750000e+008HZ,  1.200000e-001,  6.990000e+001)
+( 9.800000e+008HZ,  2.960000e+000,  6.150000e+001)
+( 9.850000e+008HZ,  2.000000e+000,  5.580000e+001)
+( 9.900000e+008HZ,  1.970000e+000,  5.500000e+001)
+( 9.950000e+008HZ,  1.940000e+000,  5.420000e+001)
+( 1.000000e+009HZ,  1.920000e+000,  5.370000e+001)

* S21 FREQ MAG PHASE
E21 21 22 FREQ {V(10,3)}= MAG 
+( 5.000000e+006HZ,  2.784000e+001,  1.529000e+002)
+( 1.000000e+007HZ,  2.260000e+001,  1.333000e+002)
+( 1.500000e+007HZ,  1.819000e+001,  1.192000e+002)
+( 2.000000e+007HZ,  1.477000e+001,  1.091000e+002)
+( 2.500000e+007HZ,  1.224000e+001,  1.014000e+002)
+( 3.000000e+007HZ,  1.037000e+001,  9.550000e+001)
+( 3.500000e+007HZ,  8.930000e+000,  9.050000e+001)
+( 4.000000e+007HZ,  7.810000e+000,  8.620000e+001)
+( 4.500000e+007HZ,  6.910000e+000,  8.230000e+001)
+( 5.000000e+007HZ,  6.170000e+000,  7.880000e+001)
+( 5.500000e+007HZ,  5.540000e+000,  7.560000e+001)
+( 6.000000e+007HZ,  5.010000e+000,  7.270000e+001)
+( 6.500000e+007HZ,  4.560000e+000,  7.000000e+001)
+( 7.000000e+007HZ,  4.170000e+000,  6.750000e+001)
+( 7.500000e+007HZ,  3.840000e+000,  6.520000e+001)
+( 8.000000e+007HZ,  3.540000e+000,  6.300000e+001)
+( 8.500000e+007HZ,  3.290000e+000,  6.090000e+001)
+( 9.000000e+007HZ,  3.060000e+000,  5.880000e+001)
+( 9.500000e+007HZ,  2.850000e+000,  5.670000e+001)
+( 1.000000e+008HZ,  2.660000e+000,  5.470000e+001)
+( 1.050000e+008HZ,  2.490000e+000,  5.280000e+001)
+( 1.100000e+008HZ,  2.340000e+000,  5.090000e+001)
+( 1.150000e+008HZ,  2.190000e+000,  4.920000e+001)
+( 1.200000e+008HZ,  2.060000e+000,  4.750000e+001)
+( 1.250000e+008HZ,  1.930000e+000,  4.600000e+001)
+( 1.300000e+008HZ,  1.820000e+000,  4.460000e+001)
+( 1.350000e+008HZ,  1.720000e+000,  4.330000e+001)
+( 1.400000e+008HZ,  1.630000e+000,  4.200000e+001)
+( 1.450000e+008HZ,  1.540000e+000,  4.090000e+001)
+( 1.500000e+008HZ,  1.460000e+000,  3.980000e+001)
+( 1.550000e+008HZ,  1.390000e+000,  3.870000e+001)
+( 1.600000e+008HZ,  1.320000e+000,  3.770000e+001)
+( 1.650000e+008HZ,  1.260000e+000,  3.670000e+001)
+( 1.700000e+008HZ,  1.200000e+000,  3.570000e+001)
+( 1.750000e+008HZ,  1.150000e+000,  3.470000e+001)
+( 1.800000e+008HZ,  1.100000e+000,  3.380000e+001)
+( 1.850000e+008HZ,  1.060000e+000,  3.280000e+001)
+( 1.900000e+008HZ,  1.010000e+000,  3.190000e+001)
+( 1.950000e+008HZ,  9.700000e-001,  3.100000e+001)
+( 2.000000e+008HZ,  9.300000e-001,  3.010000e+001)
+( 2.050000e+008HZ,  8.900000e-001,  2.930000e+001)
+( 2.100000e+008HZ,  8.500000e-001,  2.850000e+001)
+( 2.150000e+008HZ,  8.200000e-001,  2.770000e+001)
+( 2.200000e+008HZ,  7.900000e-001,  2.700000e+001)
+( 2.250000e+008HZ,  7.600000e-001,  2.630000e+001)
+( 2.300000e+008HZ,  7.300000e-001,  2.570000e+001)
+( 2.350000e+008HZ,  7.000000e-001,  2.520000e+001)
+( 2.400000e+008HZ,  6.700000e-001,  2.470000e+001)
+( 2.450000e+008HZ,  6.500000e-001,  2.430000e+001)
+( 2.500000e+008HZ,  6.300000e-001,  2.390000e+001)
+( 2.550000e+008HZ,  6.100000e-001,  2.350000e+001)
+( 2.600000e+008HZ,  5.900000e-001,  2.320000e+001)
+( 2.650000e+008HZ,  5.700000e-001,  2.280000e+001)
+( 2.700000e+008HZ,  5.500000e-001,  2.240000e+001)
+( 2.750000e+008HZ,  5.300000e-001,  2.200000e+001)
+( 2.800000e+008HZ,  5.200000e-001,  2.170000e+001)
+( 2.850000e+008HZ,  5.000000e-001,  2.120000e+001)
+( 2.900000e+008HZ,  4.900000e-001,  2.080000e+001)
+( 2.950000e+008HZ,  4.700000e-001,  2.040000e+001)
+( 3.000000e+008HZ,  4.600000e-001,  2.010000e+001)
+( 3.050000e+008HZ,  4.400000e-001,  1.980000e+001)
+( 3.100000e+008HZ,  4.300000e-001,  1.960000e+001)
+( 3.150000e+008HZ,  4.200000e-001,  1.930000e+001)
+( 3.200000e+008HZ,  4.100000e-001,  1.920000e+001)
+( 3.250000e+008HZ,  3.900000e-001,  1.900000e+001)
+( 3.300000e+008HZ,  3.800000e-001,  1.900000e+001)
+( 3.350000e+008HZ,  3.700000e-001,  1.890000e+001)
+( 3.400000e+008HZ,  3.600000e-001,  1.890000e+001)
+( 3.450000e+008HZ,  3.600000e-001,  1.880000e+001)
+( 3.500000e+008HZ,  3.500000e-001,  1.880000e+001)
+( 3.550000e+008HZ,  3.400000e-001,  1.870000e+001)
+( 3.600000e+008HZ,  3.300000e-001,  1.870000e+001)
+( 3.650000e+008HZ,  3.200000e-001,  1.870000e+001)
+( 3.700000e+008HZ,  3.100000e-001,  1.870000e+001)
+( 3.750000e+008HZ,  3.100000e-001,  1.880000e+001)
+( 3.800000e+008HZ,  3.000000e-001,  1.880000e+001)
+( 3.850000e+008HZ,  2.900000e-001,  1.880000e+001)
+( 3.900000e+008HZ,  2.900000e-001,  1.890000e+001)
+( 3.950000e+008HZ,  2.800000e-001,  1.890000e+001)
+( 4.000000e+008HZ,  2.700000e-001,  1.910000e+001)
+( 4.050000e+008HZ,  2.700000e-001,  1.920000e+001)
+( 4.100000e+008HZ,  2.600000e-001,  1.920000e+001)
+( 4.150000e+008HZ,  2.600000e-001,  1.940000e+001)
+( 4.200000e+008HZ,  2.500000e-001,  1.940000e+001)
+( 4.250000e+008HZ,  2.500000e-001,  1.960000e+001)
+( 4.300000e+008HZ,  2.400000e-001,  1.980000e+001)
+( 4.350000e+008HZ,  2.400000e-001,  2.000000e+001)
+( 4.400000e+008HZ,  2.300000e-001,  2.030000e+001)
+( 4.450000e+008HZ,  2.300000e-001,  2.050000e+001)
+( 4.500000e+008HZ,  2.200000e-001,  2.090000e+001)
+( 4.550000e+008HZ,  2.200000e-001,  2.120000e+001)
+( 4.600000e+008HZ,  2.200000e-001,  2.150000e+001)
+( 4.650000e+008HZ,  2.100000e-001,  2.190000e+001)
+( 4.700000e+008HZ,  2.100000e-001,  2.220000e+001)
+( 4.750000e+008HZ,  2.100000e-001,  2.260000e+001)
+( 4.800000e+008HZ,  2.000000e-001,  2.300000e+001)
+( 4.850000e+008HZ,  2.000000e-001,  2.330000e+001)
+( 4.900000e+008HZ,  2.000000e-001,  2.360000e+001)
+( 4.950000e+008HZ,  1.900000e-001,  2.400000e+001)
+( 5.000000e+008HZ,  1.900000e-001,  2.420000e+001)
+( 5.050000e+008HZ,  1.900000e-001,  2.460000e+001)
+( 5.100000e+008HZ,  1.900000e-001,  2.510000e+001)
+( 5.150000e+008HZ,  1.800000e-001,  2.540000e+001)
+( 5.200000e+008HZ,  1.800000e-001,  2.590000e+001)
+( 5.250000e+008HZ,  1.800000e-001,  2.630000e+001)
+( 5.300000e+008HZ,  1.800000e-001,  2.680000e+001)
+( 5.350000e+008HZ,  1.700000e-001,  2.720000e+001)
+( 5.400000e+008HZ,  1.700000e-001,  2.770000e+001)
+( 5.450000e+008HZ,  1.700000e-001,  2.830000e+001)
+( 5.500000e+008HZ,  1.700000e-001,  2.870000e+001)
+( 5.550000e+008HZ,  1.700000e-001,  2.940000e+001)
+( 5.600000e+008HZ,  1.700000e-001,  2.990000e+001)
+( 5.650000e+008HZ,  1.600000e-001,  3.040000e+001)
+( 5.700000e+008HZ,  1.600000e-001,  3.100000e+001)
+( 5.750000e+008HZ,  1.600000e-001,  3.160000e+001)
+( 5.800000e+008HZ,  1.600000e-001,  3.220000e+001)
+( 5.850000e+008HZ,  1.600000e-001,  3.260000e+001)
+( 5.900000e+008HZ,  1.600000e-001,  3.310000e+001)
+( 5.950000e+008HZ,  1.600000e-001,  3.350000e+001)
+( 6.000000e+008HZ,  1.600000e-001,  3.400000e+001)
+( 6.050000e+008HZ,  1.600000e-001,  3.450000e+001)
+( 6.100000e+008HZ,  1.500000e-001,  3.480000e+001)
+( 6.150000e+008HZ,  1.500000e-001,  3.530000e+001)
+( 6.200000e+008HZ,  1.500000e-001,  3.560000e+001)
+( 6.250000e+008HZ,  1.500000e-001,  3.620000e+001)
+( 6.300000e+008HZ,  1.500000e-001,  3.690000e+001)
+( 6.350000e+008HZ,  1.500000e-001,  3.750000e+001)
+( 6.400000e+008HZ,  1.500000e-001,  3.830000e+001)
+( 6.450000e+008HZ,  1.500000e-001,  3.880000e+001)
+( 6.500000e+008HZ,  1.500000e-001,  3.970000e+001)
+( 6.550000e+008HZ,  1.500000e-001,  4.040000e+001)
+( 6.600000e+008HZ,  1.500000e-001,  4.090000e+001)
+( 6.650000e+008HZ,  1.500000e-001,  4.160000e+001)
+( 6.700000e+008HZ,  1.500000e-001,  4.220000e+001)
+( 6.750000e+008HZ,  1.500000e-001,  4.260000e+001)
+( 6.800000e+008HZ,  1.500000e-001,  4.290000e+001)
+( 6.850000e+008HZ,  1.500000e-001,  4.310000e+001)
+( 6.900000e+008HZ,  1.500000e-001,  4.340000e+001)
+( 6.950000e+008HZ,  1.500000e-001,  4.360000e+001)
+( 7.000000e+008HZ,  1.500000e-001,  4.380000e+001)
+( 7.050000e+008HZ,  1.500000e-001,  4.420000e+001)
+( 7.100000e+008HZ,  1.500000e-001,  4.440000e+001)
+( 7.150000e+008HZ,  1.500000e-001,  4.500000e+001)
+( 7.200000e+008HZ,  1.400000e-001,  4.550000e+001)
+( 7.250000e+008HZ,  1.400000e-001,  4.610000e+001)
+( 7.300000e+008HZ,  1.400000e-001,  4.670000e+001)
+( 7.350000e+008HZ,  1.400000e-001,  4.750000e+001)
+( 7.400000e+008HZ,  1.400000e-001,  4.810000e+001)
+( 7.450000e+008HZ,  1.400000e-001,  4.880000e+001)
+( 7.500000e+008HZ,  1.400000e-001,  4.940000e+001)
+( 7.550000e+008HZ,  1.500000e-001,  4.990000e+001)
+( 7.600000e+008HZ,  1.500000e-001,  5.050000e+001)
+( 7.650000e+008HZ,  1.500000e-001,  5.090000e+001)
+( 7.700000e+008HZ,  1.500000e-001,  5.110000e+001)
+( 7.750000e+008HZ,  1.500000e-001,  5.140000e+001)
+( 7.800000e+008HZ,  1.500000e-001,  5.160000e+001)
+( 7.850000e+008HZ,  1.500000e-001,  5.150000e+001)
+( 7.900000e+008HZ,  1.500000e-001,  5.170000e+001)
+( 7.950000e+008HZ,  1.500000e-001,  5.170000e+001)
+( 8.000000e+008HZ,  1.500000e-001,  5.160000e+001)
+( 8.050000e+008HZ,  1.500000e-001,  5.190000e+001)
+( 8.100000e+008HZ,  1.500000e-001,  5.200000e+001)
+( 8.150000e+008HZ,  1.500000e-001,  5.240000e+001)
+( 8.200000e+008HZ,  1.500000e-001,  5.260000e+001)
+( 8.250000e+008HZ,  1.500000e-001,  5.320000e+001)