Version 4
SHEET 1 4460 1080
WIRE 160 -48 48 -48
WIRE 288 -48 160 -48
WIRE 896 -48 288 -48
WIRE 48 -32 48 -48
WIRE 160 -32 160 -48
WIRE 384 -32 240 -32
WIRE 928 -32 384 -32
WIRE 384 -16 384 -32
WIRE 48 64 48 48
WIRE 160 64 160 32
WIRE 384 80 384 64
WIRE 464 80 384 80
WIRE 384 96 384 80
WIRE 288 112 288 -48
WIRE 464 128 464 80
WIRE 496 128 464 128
WIRE 896 128 896 -48
WIRE 896 128 880 128
WIRE 384 192 384 176
WIRE 288 224 288 192
WIRE 496 224 288 224
WIRE 976 224 880 224
WIRE 1072 224 976 224
WIRE 1184 224 1152 224
WIRE 1280 224 1184 224
WIRE 1424 224 1280 224
WIRE 1520 224 1424 224
WIRE 1280 240 1280 224
WIRE 1424 240 1424 224
WIRE 1520 240 1520 224
WIRE 1184 288 1184 224
WIRE 416 320 400 320
WIRE 496 320 480 320
WIRE 976 320 976 288
WIRE 976 320 880 320
WIRE 1280 336 1280 304
WIRE 1424 336 1424 304
WIRE 1520 336 1520 320
WIRE 1184 400 1184 352
WIRE 240 416 240 -32
WIRE 272 416 240 416
WIRE 384 416 352 416
WIRE 496 416 384 416
WIRE 928 416 928 -32
WIRE 928 416 880 416
WIRE 976 416 976 384
WIRE 976 416 928 416
WIRE 384 448 384 416
WIRE 496 512 480 512
WIRE 1184 512 1184 480
WIRE 1184 512 880 512
WIRE 1184 528 1184 512
WIRE 384 544 384 528
WIRE 240 576 240 416
WIRE 480 576 480 512
WIRE 480 576 240 576
WIRE 912 608 880 608
WIRE 960 608 912 608
WIRE 992 608 960 608
WIRE 1104 608 1072 608
WIRE 912 624 912 608
WIRE 1104 624 1104 608
WIRE 1184 624 1184 608
WIRE 608 688 608 672
WIRE 768 688 768 672
WIRE 912 704 912 688
WIRE 1104 704 1104 688
FLAG 976 480 0
FLAG 1520 336 0
FLAG 1184 624 0
FLAG 1280 336 0
FLAG 48 64 0
FLAG 400 320 0
FLAG 160 64 0
FLAG 48 -48 IN
FLAG 1520 224 OUT
FLAG 1104 704 0
FLAG 912 704 0
FLAG 768 688 0
FLAG 608 688 0
FLAG 384 544 0
FLAG 384 192 0
FLAG 1424 336 0
FLAG 960 608 Ith
SYMBOL res 1168 384 R0
SYMATTR InstName R1
SYMATTR Value 6.49K
SYMBOL res 1168 512 R0
SYMATTR InstName R2
SYMATTR Value 4.99K
SYMBOL schottky 960 384 M180
WINDOW 0 41 53 Left 2
WINDOW 3 24 0 Left 2
SYMATTR InstName D1
SYMATTR Value CMDSH2-3
SYMBOL cap 960 416 R0
WINDOW 3 30 51 Left 2
SYMATTR Value 4.7µ
SYMATTR InstName C1
SYMBOL ind 1056 240 R270
WINDOW 0 32 56 VTop 2
WINDOW 3 5 56 VBottom 2
WINDOW 39 -16 56 VBottom 2
SYMATTR InstName L1
SYMATTR Value 2.2µ
SYMATTR SpiceLine Rser=6m
SYMBOL polcap 1264 240 R0
WINDOW 39 27 59 Left 2
WINDOW 40 27 83 Left 2
WINDOW 3 45 38 Left 2
SYMATTR SpiceLine Rser=9m
SYMATTR SpiceLine2 x2
SYMATTR Value 200µ
SYMATTR InstName C2
SYMBOL VOLTAGE 48 -48 R0
WINDOW 123 0 0 Left 0
WINDOW 39 0 0 Left 0
SYMATTR InstName V1
SYMATTR Value 28
SYMBOL cap 480 304 R90
WINDOW 0 0 32 VBottom 2
WINDOW 3 32 32 VTop 2
SYMATTR InstName C3
SYMATTR Value .1µ
SYMBOL cap 960 224 R0
WINDOW 0 31 16 Left 2
SYMATTR InstName C4
SYMATTR Value .22µ
SYMBOL cap 144 -32 R0
SYMATTR InstName C5
SYMATTR Value 22µ
SYMATTR SpiceLine Rser=1m Lser=.3n
SYMBOL res 976 624 R270
WINDOW 0 32 56 VTop 2
WINDOW 3 0 56 VBottom 2
SYMATTR InstName R3
SYMATTR Value 24.9K
SYMBOL cap 1088 624 R0
SYMATTR InstName C6
SYMATTR Value 1n
SYMBOL cap 896 624 R0
SYMATTR InstName C7
SYMATTR Value 10p
SYMBOL PowerProducts\\LTC3611 688 368 R0
SYMATTR InstName U1
SYMBOL res 256 432 R270
WINDOW 0 32 56 VTop 2
WINDOW 3 0 56 VBottom 2
SYMATTR InstName R4
SYMATTR Value 6.49K
SYMBOL res 368 432 R0
SYMATTR InstName R5
SYMATTR Value 39.2K
SYMBOL res 272 96 R0
SYMATTR InstName R6
SYMATTR Value 249K
SYMBOL res 368 -32 R0
SYMATTR InstName R7
SYMATTR Value 15.0K
SYMBOL res 368 80 R0
SYMATTR InstName R8
SYMATTR Value 4.99K
SYMBOL cap 1408 240 R0
SYMATTR InstName C8
SYMATTR Value 50µ
SYMATTR SpiceLine Rser=1.5m Lser=.24n
SYMBOL res 1504 224 R0
SYMATTR InstName Rload
SYMATTR Value 0.25
SYMBOL fra 1184 352 R0
SYMATTR InstName @1
SYMATTR SpiceLine delay=250u fstart=1k fend=250K oct=2 fcoarse=2k nmax=4 pp0=50m pp1=5m f0=5k f1=50K tavgmin=200µ tsettle=20u intnode="Ith"
TEXT 992 96 Left 2 ;Loop crossover frequency: 125KHz\nPhase Margin: 92°
TEXT 992 24 Left 2 !.fra\n.ic V(OUT)=1.38
TEXT 992 -48 Left 2 ;.tran 500u \n.ic V(OUT)=1.38
