Version 4
SHEET 1 2972 1188
WIRE -208 -288 -224 -288
WIRE 0 -288 -128 -288
WIRE 32 -288 0 -288
WIRE 496 -288 448 -288
WIRE 496 -272 496 -288
WIRE -256 -192 -976 -192
WIRE 32 -192 -256 -192
WIRE 480 -192 448 -192
WIRE 496 -192 496 -208
WIRE 496 -192 480 -192
WIRE 608 -192 496 -192
WIRE 704 -192 688 -192
WIRE 752 -192 704 -192
WIRE 800 -192 752 -192
WIRE 848 -192 800 -192
WIRE 944 -192 848 -192
WIRE -976 -176 -976 -192
WIRE 752 -176 752 -192
WIRE 848 -176 848 -192
WIRE -112 -96 -128 -96
WIRE -16 -96 -48 -96
WIRE 32 -96 -16 -96
WIRE 496 -96 448 -96
WIRE 496 -80 496 -96
WIRE 752 -80 752 -112
WIRE 848 -80 848 -112
WIRE -112 0 -128 0
WIRE -16 0 -48 0
WIRE 32 0 -16 0
WIRE 480 0 448 0
WIRE 496 0 496 -16
WIRE 496 0 480 0
WIRE 608 0 496 0
WIRE 704 0 704 -192
WIRE 704 0 688 0
WIRE 512 64 480 64
WIRE 560 64 512 64
WIRE 752 64 624 64
WIRE 944 64 944 -192
WIRE 944 64 752 64
WIRE 1536 64 944 64
WIRE 1536 80 1536 64
WIRE 1648 80 1584 80
WIRE -304 96 -480 96
WIRE 32 96 -304 96
WIRE 448 96 480 64
WIRE 752 96 752 64
WIRE 864 96 800 96
WIRE 1584 96 1584 80
WIRE 1648 96 1648 80
WIRE 800 112 800 96
WIRE -480 128 -480 96
WIRE 1648 176 1648 160
WIRE -112 192 -128 192
WIRE -16 192 -48 192
WIRE 32 192 -16 192
WIRE 752 192 752 176
WIRE 752 192 448 192
WIRE 800 192 800 160
WIRE 800 192 752 192
WIRE 864 192 864 176
WIRE 864 192 800 192
WIRE 896 192 864 192
WIRE 1536 192 1536 160
WIRE 1536 192 896 192
WIRE 1584 192 1584 144
WIRE 1584 192 1536 192
WIRE 1648 192 1648 176
WIRE 1648 192 1584 192
WIRE 896 208 896 192
WIRE 496 288 448 288
WIRE 592 288 496 288
WIRE 720 288 672 288
WIRE 800 288 720 288
WIRE -320 384 -864 384
WIRE -208 384 -320 384
WIRE -80 384 -144 384
WIRE -64 384 -80 384
WIRE 32 384 -64 384
WIRE 528 384 448 384
WIRE 592 384 528 384
WIRE 720 384 720 288
WIRE 720 384 672 384
WIRE -80 400 -80 384
WIRE -864 448 -864 384
WIRE 160 480 160 464
WIRE 320 480 320 464
FLAG 320 480 0
FLAG 160 480 0
FLAG -128 -96 0
FLAG -224 -288 0
FLAG 848 -80 0
FLAG 800 -192 OUT
FLAG 752 -80 0
FLAG -128 0 0
FLAG -128 192 0
FLAG -976 -96 0
FLAG -480 208 0
FLAG -256 -192 RUN
FLAG 496 -288 BOOST0
FLAG 480 -192 SW0
FLAG 480 0 SW1
FLAG 496 -96 BOOST1
FLAG -864 528 0
FLAG -320 384 CLK_EXT
FLAG -64 384 SYNC/PWM_CFG
FLAG -80 480 0
FLAG 800 288 EXTVCC
FLAG 528 384 /ALERT
FLAG -16 -96 VDD18
FLAG -16 192 INTVCC
FLAG -16 0 DRVCC
FLAG 0 -288 PVIN
FLAG 496 288 PGOOD
FLAG -304 96 EXTVCC
FLAG 896 208 0
FLAG 512 64 VSENSEP
SYMBOL voltage -112 -288 R90
WINDOW 123 0 0 Left 0
WINDOW 39 0 0 Left 0
SYMATTR InstName V1
SYMATTR Value 12
SYMBOL cap -112 -112 M90
WINDOW 0 0 32 VBottom 2
WINDOW 3 32 32 VTop 2
SYMATTR InstName C1
SYMATTR Value 1u
SYMBOL ind 592 -176 R270
WINDOW 0 32 56 VTop 2
WINDOW 3 5 56 VBottom 2
SYMATTR InstName L0
SYMATTR Value 0.68u
SYMATTR SpiceLine Rser=6m
SYMBOL cap 832 -176 R0
SYMATTR InstName C9
SYMATTR Value 100u
SYMATTR SpiceLine Rser=500u Lser=200p
SYMBOL cap 736 -176 R0
SYMATTR InstName C5
SYMATTR Value 100u
SYMATTR SpiceLine Rser=500u Lser=200p
SYMBOL cap -112 -16 M90
WINDOW 0 0 32 VBottom 2
WINDOW 3 32 32 VTop 2
SYMATTR InstName C2
SYMATTR Value 10u
SYMBOL cap 480 -80 R0
SYMATTR InstName C4
SYMATTR Value .1u
SYMBOL cap -112 176 M90
WINDOW 0 0 32 VBottom 2
WINDOW 3 32 32 VTop 2
SYMATTR InstName C3
SYMATTR Value 10u
SYMBOL cap 480 -272 R0
SYMATTR InstName C6
SYMATTR Value .1u
SYMBOL ind 592 16 R270
WINDOW 0 32 56 VTop 2
WINDOW 3 5 56 VBottom 2
SYMATTR InstName L1
SYMATTR Value 0.68u
SYMATTR SpiceLine Rser=6m
SYMBOL voltage -976 -192 M0
WINDOW 123 0 0 Left 0
WINDOW 39 0 0 Left 0
WINDOW 3 -1000 35 Left 2
SYMATTR Value PWL(500u {5*(1-enloadstep)} 500.001u 5 3000u 5 3000.001u {5*(1-enloadstep)})
SYMATTR InstName V2
SYMBOL voltage -480 112 R0
WINDOW 123 0 0 Left 0
WINDOW 39 0 0 Left 0
SYMATTR InstName V3
SYMATTR Value 5
SYMBOL voltage -864 432 M0
WINDOW 123 0 0 Left 0
WINDOW 39 0 0 Left 0
WINDOW 3 -608 21 Left 2
SYMATTR Value PULSE(0 {5*enloadstep} 2.5m 1n 1n 500n 1u 500)
SYMATTR InstName V4
SYMBOL cap -208 368 M90
WINDOW 0 0 32 VBottom 2
WINDOW 3 32 32 VTop 2
SYMATTR InstName C7
SYMATTR Value 1.5n
SYMBOL res -64 384 M0
SYMATTR InstName R2
SYMATTR Value 162k
SYMBOL res 688 368 R90
WINDOW 0 0 56 VBottom 2
WINDOW 3 32 56 VTop 2
SYMATTR InstName R3
SYMATTR Value 4700
SYMBOL res 688 272 R90
WINDOW 0 0 56 VBottom 2
WINDOW 3 32 56 VTop 2
SYMATTR InstName R1
SYMATTR Value 4700
SYMBOL voltage 864 80 R0
WINDOW 123 0 0 Left 0
WINDOW 39 0 0 Left 0
WINDOW 3 36 45 Left 1
SYMATTR Value PWL(1.2m 0 1.2001m {enloadstep} 1.5m {enloadstep} 1.5001m 0)
SYMATTR InstName V7
SYMBOL voltage 1648 80 R0
WINDOW 123 0 0 Left 0
WINDOW 39 0 0 Left 0
WINDOW 3 -434 131 Left 1
SYMATTR Value PWL(2m 0 2.0001m {enloadstep} 2.1m {enloadstep} 2.1001m 0)
SYMATTR InstName V8
SYMBOL sw 752 192 R180
SYMATTR InstName S1
SYMATTR Value SWLOAD
SYMBOL sw 1536 176 R180
SYMATTR InstName S2
SYMATTR Value SWILIM
SYMBOL LT7170-1 240 0 R0
SYMATTR InstName U1
SYMATTR SpiceLine FREQUENCY_SWITCH=500k VOUT_RANGE=0 VOUT_COMMAND=0.8 TON_DELAY=.01m TON_RISE={0.1m+(0.5m*enloadstep)}  TOFF_DELAY=.2m TOFF_FALL=.3m  ILIM_RANGE=0 PulseSkipMode=0 GMEA_CONTROL=7  RITH=7k CITH=320p
SYMATTR SpiceLine2 MFR_PWM_PHASE=90 OUTPUT_DISCHARGE={enloadstep} VOUT_UV_FAULT_LIMIT=0.76 VOUT_OV_FAULT_LIMIT=0.84 VOUT_UV_WARN_LIMIT=0.780 VOUT_OV_WARN_LIMIT=0.820 TOFF_FALL_FCM=1 VIN_ON=1.4 VIN_OFF=1.35
SYMBOL fra 560 64 M270
WINDOW 0 16 -24 VTop 2
SYMATTR InstName @1
SYMATTR SpiceLine delay=300u fstart=8k fend=256k oct=2 fcoarse=16k nmax=4 pp0=25.6m pp1=1.6m f0=3.125K f1=50K tavgmin=100µ tsettle=20u
TEXT 632 464 Left 2 ;.tran 4m startup\n.param enloadstep=1
TEXT -368 -1344 Left 2 ;The following parameters can be defined by right-clicking on the LT7170-1 symbol.\n \nFREQUENCY_SWITCH -- in Hz, sets switching frequency\n \nVout_range -- sets maximum output range, 0 for 1.375V, 1 for 2.75V, 2 for 5.5V\n \nVOUT_COMMAND -- in volt, sets output voltage\n \nTon_delay & Ton_rise -- in sec, set ON delay and soft-start time\nToff_delay & Toff_fall -- in sec, set OFF delay and soft-off time \n \nIlim_range -- sets current limit options:\n   0 positive valley current limit of 6A per phase, negative valley current limit of -3.5A\n   1 positive valley current limit of 8A per phase, negative valley current limit of -5A\n   2 positive valley current limit of 10.5A per phase, negative valley current limit of -6A\n   3 positive valley current limit of 13A per phase, negative valley current limit of -7.5A         \n \nPulseSkipMode--sets operation mode: 1 for pulse skip mode, 0 for forced continuous conduction mode\n     \nGMEA_control--Sets Error Amp parameters, N=0 to 31\n     GmEA = 0.25mS*(n+1)\n     RoutEA = 150MegOhm/(n+1)\n      ImaxOutEA = 8.5uA*(n+1) \n \nRITH--in ohm, programmable internal compensation\n \nCITH--in Farad, programmable internal compensation\n \nMFR_PWM_PHASE-- in degree, sets the master phase delay in 15-degree increments with respect to the SYNC frequency if present.\n \nOutput_discharge--0 for disabled, 1 for enabled \n \nVout_UV_Fault_Limit and Vout_OV_Fault_Limit --- in volt, set the undervoltage and  overvoltage fault limit for the Pgood output\nVout_UV_Warn_Limit and Vout_OV_Warn_Limit-- in volt, set the undervoltage and  overvoltage warning limit for the Alert output
TEXT 952 24 Left 2 !.model SWLOAD SW(Ron=100m Roff=100Meg Vt=.5 Vh=.1)
TEXT 952 48 Left 2 !.model SWILIM SW(Ron=25m Roff=100Meg Vt=.5 Vh=.1)
TEXT 632 552 Left 2 !.fra\n.param enloadstep=0\n.ic V(OUT)=0.8
