Version 4
SHEET 1 1652 1516
WIRE -144 672 -224 672
WIRE -48 672 -144 672
WIRE 64 672 -48 672
WIRE 416 672 352 672
WIRE 576 672 416 672
WIRE 672 672 576 672
WIRE 800 672 672 672
WIRE 896 672 800 672
WIRE 1008 672 896 672
WIRE -224 688 -224 672
WIRE 416 688 416 672
WIRE 576 688 576 672
WIRE 672 688 672 672
WIRE 800 688 800 672
WIRE 896 688 896 672
WIRE 1008 688 1008 672
WIRE -144 704 -144 672
WIRE -48 768 -48 672
WIRE -32 768 -48 768
WIRE 64 768 48 768
WIRE -224 784 -224 768
WIRE 576 784 576 752
WIRE 672 784 672 768
WIRE 672 784 576 784
WIRE 800 784 800 752
WIRE 896 784 896 752
WIRE 1008 784 1008 768
WIRE -144 800 -144 768
WIRE 384 800 352 800
WIRE 416 800 416 768
WIRE 416 800 384 800
WIRE 672 896 672 784
WIRE 384 928 352 928
WIRE 416 928 384 928
WIRE 528 928 416 928
WIRE 672 928 672 896
WIRE 672 928 624 928
WIRE 416 944 416 928
WIRE -80 960 -96 960
WIRE 32 960 -16 960
WIRE 64 960 32 960
WIRE 672 960 672 928
WIRE -80 1056 -96 1056
WIRE 32 1056 0 1056
WIRE 64 1056 32 1056
WIRE 368 1056 352 1056
WIRE 672 1056 672 1040
WIRE 416 1104 416 1088
FLAG 1008 672 OUT
FLAG -224 672 IN
FLAG -96 1056 0
FLAG -96 960 0
FLAG -224 784 0
FLAG 800 784 0
FLAG 896 784 0
FLAG 1008 784 0
FLAG 368 1056 0
FLAG -144 800 0
FLAG 416 1104 0
FLAG 672 1056 0
FLAG 384 928 FB
FLAG 528 992 0
FLAG 624 992 0
FLAG 672 896 FBX
FLAG 384 800 PG
FLAG 32 960 TRSS
FLAG 32 1056 RT
SYMBOL res 400 1040 M180
WINDOW 0 36 76 Left 2
WINDOW 3 36 40 Left 2
SYMATTR InstName R1
SYMATTR Value 76.8K
SYMBOL res 16 1040 R90
WINDOW 0 0 56 VBottom 2
WINDOW 3 32 56 VTop 2
SYMATTR InstName R3
SYMATTR Value 18.2K
SYMBOL cap -16 944 R90
WINDOW 0 0 32 VBottom 2
WINDOW 3 57 28 VBottom 2
SYMATTR InstName C7
SYMATTR Value 1p
SYMBOL res 400 672 R0
SYMATTR InstName R4
SYMATTR Value 100K
SYMBOL res -48 784 R270
WINDOW 0 32 56 VTop 2
WINDOW 3 0 56 VBottom 2
SYMATTR InstName R5
SYMATTR Value 1Meg
SYMBOL voltage -224 672 M0
WINDOW 123 0 0 Left 0
WINDOW 39 0 0 Left 0
SYMATTR InstName V1
SYMATTR Value 12
SYMBOL cap 784 688 R0
SYMATTR InstName C10
SYMATTR Value 4.4µ
SYMATTR SpiceLine Rser=6m
SYMBOL cap 880 688 R0
SYMATTR InstName C11
SYMATTR Value 39µ
SYMATTR SpiceLine Rser=2m
SYMBOL res 992 672 R0
SYMATTR InstName RLOAD
SYMATTR Value {3.3/1.2}
SYMBOL LTM8074 208 864 R0
SYMATTR InstName U1
SYMBOL cap -160 704 R0
WINDOW 123 24 84 Left 2
SYMATTR Value2 x3
SYMATTR InstName C1
SYMATTR Value 4.7µ
SYMBOL fra 416 1088 R0
SYMATTR InstName @1
SYMATTR SpiceLine delay=200u fstart=1k fend=80k oct=2 fcoarse=2k nmax=4 pp0=160m pp1=10m f0=1k f1=16k tavgmin=50u tsettle=50µ
SYMBOL res 656 672 R0
SYMATTR InstName R2
SYMATTR Value 249k
SYMBOL res 656 944 R0
SYMATTR InstName R7
SYMATTR Value 76.8k
SYMBOL fraprobe 576 1008 R0
SYMATTR InstName &1
SYMBOL cap 560 688 R0
SYMATTR InstName C2
SYMATTR Value 10p
TEXT 80 1136 Left 2 !.options trtol=4\n\n.fra startup
