Version 4
SHEET 1 1384 708
WIRE 96 -64 0 -64
WIRE 256 -64 96 -64
WIRE 0 -48 0 -64
WIRE 256 -48 256 -64
WIRE 96 0 96 -64
WIRE 112 0 96 0
WIRE 0 48 0 32
WIRE 480 192 400 192
WIRE 592 192 560 192
WIRE 800 192 592 192
WIRE 912 192 800 192
WIRE 592 208 592 192
WIRE -32 288 -48 288
WIRE 80 288 32 288
WIRE 112 288 80 288
WIRE 480 288 400 288
WIRE 592 288 592 272
WIRE 672 288 592 288
WIRE 704 288 672 288
WIRE 592 304 592 288
WIRE 704 304 704 288
WIRE 800 304 800 192
WIRE 912 304 912 192
WIRE 16 384 0 384
WIRE 112 384 96 384
WIRE 416 384 400 384
WIRE 480 384 480 288
WIRE 592 384 480 384
WIRE 704 384 704 368
WIRE 704 384 592 384
WIRE 592 400 592 384
WIRE 800 400 800 368
WIRE 912 400 912 384
WIRE 592 496 592 480
FLAG 0 384 0
FLAG -48 288 0
FLAG 0 48 0
FLAG 800 400 0
FLAG 592 496 0
FLAG 912 400 0
FLAG 912 192 OUT
FLAG 0 -64 IN
FLAG 416 384 0
FLAG 80 288 TRSS
FLAG 672 288 OUTFB
SYMBOL res 112 368 R90
WINDOW 0 0 56 VBottom 2
WINDOW 3 32 56 VTop 2
SYMATTR InstName R1
SYMATTR Value 18.2K
SYMBOL cap 32 272 R90
WINDOW 0 0 32 VBottom 2
WINDOW 3 32 32 VTop 2
SYMATTR InstName C1
SYMATTR Value 100p
SYMBOL voltage 0 -64 R0
SYMATTR InstName V1
SYMATTR Value 24
SYMBOL ind 464 208 R270
WINDOW 0 32 56 VTop 2
WINDOW 3 5 56 VBottom 2
SYMATTR InstName L1
SYMATTR Value 2.2µ
SYMATTR SpiceLine Rser=23.5m
SYMBOL res 576 288 R0
SYMATTR InstName R2
SYMATTR Value 1Meg
SYMBOL res 576 384 R0
SYMATTR InstName R3
SYMATTR Value 182K
SYMBOL cap 688 304 R0
SYMATTR InstName C5
SYMATTR Value 10p
SYMBOL res 896 288 R0
SYMATTR InstName Rload
SYMATTR Value 2.5
SYMBOL PowerProducts\\LT8609S 256 192 R0
SYMATTR InstName U1
SYMBOL fra 592 272 R0
SYMATTR InstName @1
SYMATTR SpiceLine delay=150u fstart=2k fend=256k oct=3 fcoarse=4k nmax=3 pp0=200m pp1=50m f0=25k f1=100k tavgmin=50u tsettle=50u
SYMBOL cap 784 304 R0
SYMATTR InstName C2
SYMATTR Value 30.43µ
SYMATTR SpiceLine Rser=1.9m Lser=0.3598n
TEXT -24 464 Left 2 !.ic V(OUT)=4.9 V(TRSS)=3.3
TEXT -24 496 Left 2 !.fra
