Version 4
SHEET 1 1028 696
WIRE -48 560 -48 528
WIRE -16 272 -32 272
WIRE -16 560 -16 544
WIRE 0 176 -16 176
WIRE 0 208 -16 208
WIRE 0 272 -16 272
WIRE 208 176 160 176
WIRE 208 208 160 208
WIRE 208 240 160 240
WIRE 208 272 160 272
WIRE 224 176 208 176
WIRE 224 176 224 80
WIRE 240 528 176 528
WIRE 240 528 240 432
WIRE 256 176 256 48
WIRE 272 16 256 16
WIRE 272 48 256 48
WIRE 272 80 224 80
WIRE 272 528 272 400
WIRE 288 368 272 368
WIRE 288 400 272 400
WIRE 288 432 240 432
WIRE 336 0 336 -32
WIRE 336 256 336 96
WIRE 352 352 352 320
WIRE 352 608 352 448
WIRE 400 -32 336 -32
WIRE 416 176 256 176
WIRE 416 176 416 32
WIRE 432 144 432 96
WIRE 432 320 352 320
WIRE 432 528 272 528
WIRE 432 528 432 384
WIRE 448 144 432 144
WIRE 448 176 416 176
WIRE 448 208 208 208
WIRE 448 496 448 448
WIRE 464 496 448 496
WIRE 464 528 432 528
WIRE 464 560 176 560
WIRE 480 32 416 32
WIRE 480 384 432 384
WIRE 512 -32 400 -32
WIRE 512 128 512 -32
WIRE 512 256 336 256
WIRE 512 256 512 224
WIRE 528 96 432 96
WIRE 528 320 432 320
WIRE 528 480 528 320
WIRE 528 608 352 608
WIRE 528 608 528 576
WIRE 544 448 448 448
WIRE 640 240 208 240
WIRE 640 240 640 64
WIRE 656 272 208 272
WIRE 656 272 656 192
WIRE 656 592 176 592
WIRE 656 592 656 416
WIRE 672 32 480 32
WIRE 672 160 672 32
WIRE 672 624 176 624
WIRE 672 624 672 544
WIRE 688 0 656 0
WIRE 688 32 672 32
WIRE 688 64 640 64
WIRE 688 384 480 384
WIRE 688 512 688 384
WIRE 704 352 672 352
WIRE 704 384 688 384
WIRE 704 416 656 416
WIRE 752 -32 512 -32
WIRE 752 -16 752 -32
WIRE 752 112 752 80
WIRE 752 256 512 256
WIRE 752 256 752 112
WIRE 768 320 528 320
WIRE 768 336 768 320
WIRE 768 464 768 432
WIRE 768 608 528 608
WIRE 768 608 768 464
WIRE 784 112 752 112
WIRE 800 464 768 464
WIRE 848 128 848 112
WIRE 864 128 848 128
WIRE 864 160 672 160
WIRE 864 192 656 192
WIRE 864 480 864 464
WIRE 880 480 864 480
WIRE 880 512 688 512
WIRE 880 544 672 544
WIRE 928 -32 752 -32
WIRE 928 112 928 -32
WIRE 928 256 752 256
WIRE 928 256 928 208
WIRE 944 320 768 320
WIRE 944 464 944 320
WIRE 944 608 768 608
WIRE 944 608 944 560
FLAG 256 16 xio0
IOPIN 256 16 BiDir
FLAG 656 0 xio2
IOPIN 656 0 BiDir
FLAG 848 112 xio3
IOPIN 848 112 BiDir
FLAG 528 96 xio1
IOPIN 528 96 BiDir
FLAG 208 176 Y0
FLAG 208 208 Y1
FLAG 208 240 Y2
FLAG 208 272 Y3
FLAG 272 368 yio0
IOPIN 272 368 BiDir
FLAG 672 352 yio2
IOPIN 672 352 BiDir
FLAG 864 464 yio3
IOPIN 864 464 BiDir
FLAG 544 448 yio1
IOPIN 544 448 BiDir
FLAG 176 528 Y0
IOPIN 176 528 In
FLAG 176 560 Y1
IOPIN 176 560 In
FLAG 176 592 Y2
IOPIN 176 592 In
FLAG 176 624 Y3
IOPIN 176 624 In
FLAG 400 -32 V+
FLAG 432 320 V+
FLAG -16 544 Vss
FLAG -48 528 Vee
FLAG 480 32 xcom
FLAG 480 384 ycom
FLAG -16 176 A
FLAG -16 208 B
FLAG -16 272 INH
FLAG 800 464 Vee
FLAG 784 112 Vee
SYMBOL 2to4 64 112 R0
SYMATTR InstName U1
SYMBOL Robertugo\\switchana 336 48 R0
SYMATTR InstName U2
SYMATTR SpiceModel 4066
SYMBOL Robertugo\\switchana 512 176 R0
SYMATTR InstName U3
SYMATTR SpiceModel 4066
SYMBOL Robertugo\\switchana 752 32 R0
SYMATTR InstName U4
SYMATTR SpiceModel 4066
SYMBOL Robertugo\\switchana 928 160 R0
SYMATTR InstName U5
SYMATTR SpiceModel 4066
SYMBOL Robertugo\\switchana 352 400 R0
SYMATTR InstName U7
SYMATTR SpiceModel 4066
SYMBOL Robertugo\\switchana 528 528 R0
SYMATTR InstName U8
SYMATTR SpiceModel 4066
SYMBOL Robertugo\\switchana 768 384 R0
SYMATTR InstName U9
SYMATTR SpiceModel 4066
SYMBOL Robertugo\\switchana 944 512 R0
SYMATTR InstName U10
SYMATTR SpiceModel 4066
TEXT 160 16 Left 0 ;12
TEXT 592 96 Left 0 ;14
TEXT 560 0 Left 0 ;15
TEXT 832 8 Left 0 ;11
TEXT 184 368 Left 0 ;1
TEXT 616 448 Left 0 ;5
TEXT 584 352 Left 0 ;2
TEXT 856 392 Left 0 ;4
TEXT -64 176 Left 0 ;10
TEXT -56 208 Left 0 ;9
TEXT -56 256 Left 0 ;6
TEXT 0 536 Left 0 ;8
TEXT -72 544 Left 0 ;7
TEXT 472 352 Left 0 ;3
TEXT 416 16 Left 0 ;13
