Version 4
SHEET 1 1028 696
WIRE -48 560 -48 528
WIRE -16 272 -32 272
WIRE -16 560 -16 544
WIRE 0 176 -16 176
WIRE 0 208 -16 208
WIRE 0 272 -16 272
WIRE 208 176 160 176
WIRE 208 208 160 208
WIRE 208 240 160 240
WIRE 208 272 160 272
WIRE 224 176 208 176
WIRE 224 176 224 80
WIRE 256 176 256 48
WIRE 272 16 256 16
WIRE 272 48 256 48
WIRE 272 80 224 80
WIRE 336 0 336 -32
WIRE 336 256 336 96
WIRE 400 -32 336 -32
WIRE 416 176 256 176
WIRE 416 176 416 32
WIRE 432 144 432 96
WIRE 448 144 432 144
WIRE 448 176 416 176
WIRE 448 208 208 208
WIRE 480 32 416 32
WIRE 512 -32 400 -32
WIRE 512 128 512 -32
WIRE 512 256 336 256
WIRE 512 256 512 224
WIRE 528 96 432 96
WIRE 640 240 208 240
WIRE 640 240 640 64
WIRE 656 272 208 272
WIRE 656 272 656 192
WIRE 672 32 480 32
WIRE 672 160 672 32
WIRE 688 0 656 0
WIRE 688 32 672 32
WIRE 688 64 640 64
WIRE 752 -32 512 -32
WIRE 752 -16 752 -32
WIRE 752 112 752 80
WIRE 752 256 512 256
WIRE 752 256 752 112
WIRE 784 112 752 112
WIRE 848 128 848 112
WIRE 864 128 848 128
WIRE 864 160 672 160
WIRE 864 192 656 192
WIRE 928 -32 752 -32
WIRE 928 112 928 -32
WIRE 928 256 752 256
WIRE 928 256 928 208
FLAG 256 16 io0
IOPIN 256 16 BiDir
FLAG 656 0 io2
IOPIN 656 0 BiDir
FLAG 848 112 io3
IOPIN 848 112 BiDir
FLAG 528 96 io1
IOPIN 528 96 BiDir
FLAG 208 176 Y0
FLAG 208 208 Y1
FLAG 208 240 Y2
FLAG 208 272 Y3
FLAG 400 -32 V+
FLAG -16 544 Vss
FLAG -48 528 Vee
FLAG 480 32 ioc
FLAG -16 176 A
FLAG -16 208 B
FLAG -16 272 INH
FLAG 784 112 Vee
SYMBOL 2to4 64 112 R0
SYMATTR InstName U1
SYMBOL Robertugo\\switchana 336 48 R0
SYMATTR InstName U2
SYMATTR SpiceModel 4066
SYMBOL Robertugo\\switchana 512 176 R0
SYMATTR InstName U3
SYMATTR SpiceModel 4066
SYMBOL Robertugo\\switchana 752 32 R0
SYMATTR InstName U4
SYMATTR SpiceModel 4066
SYMBOL Robertugo\\switchana 928 160 R0
SYMATTR InstName U5
SYMATTR SpiceModel 4066
TEXT 160 16 Left 0 ;12
TEXT 592 96 Left 0 ;14
TEXT 560 0 Left 0 ;15
TEXT 832 8 Left 0 ;11
TEXT -64 176 Left 0 ;10
TEXT -56 208 Left 0 ;9
TEXT -56 256 Left 0 ;6
TEXT 0 536 Left 0 ;8
TEXT -72 544 Left 0 ;7
TEXT 416 16 Left 0 ;13
