Version 4
SHEET 1 1208 724
WIRE -96 304 -96 256
WIRE 96 416 96 592
WIRE 96 592 -96 592
WIRE -96 448 -96 400
WIRE -96 528 -96 592
WIRE -96 624 -96 592
WIRE -96 176 -96 128
WIRE 48 400 -96 400
WIRE -96 128 96 128
WIRE 96 128 96 320
FLAG -96 624 0
FLAG -96 304 0
FLAG -96 128 Vd
FLAG -96 400 Vg
SYMBOL voltage -96 432 R0
WINDOW 123 24 132 Left 0
WINDOW 39 0 0 Left 0
SYMATTR InstName Vgs
SYMATTR Value {VGS}
SYMBOL voltage -96 160 R0
WINDOW 123 24 132 Left 0
WINDOW 39 0 0 Left 0
SYMATTR InstName Vds
SYMATTR Value {VDS}
SYMBOL nmos 48 320 R0
SYMATTR InstName M1
SYMATTR Value BSS83
TEXT -112 -192 Left 0 !.step param VGS 0 5 .01
TEXT -112 -152 Left 0 !.OP
TEXT -112 -416 Left 0 ;Drain Current and Transconductance Gm Versus Gate Source Voltage or Drain Current\n \nPlot Id(M1)  to get Id versus Vgs.  \nPlot d(Id(M1)) to get the transconductance Gm versius Vgs.\nThe x-axis can be changed to Id(M1) instead of Vgs to plot versus drain current Id.
TEXT -112 -80 Left 0 ;Gerneral hint for plots:\nMake the plot window active. \n"PlotSettings->Add Trace" and select an item\nor "right mouse button  ->Add Trace" and select an item.
TEXT -112 -232 Left 0 !.param VDS=5
TEXT 240 176 Left 0 !* Model from Philips Semiconductor\n.MODEL BSS83 NMOS\n+ LEVEL=3\n+ W=1E-3\n+ L=1E-6\n+ VTO=2\n+ VMAX=1E6\n+ RS=3\n+ RD=3\n+ CJ=0.001396\n+ MJ=0.3936\n+ THETA=1E-6\n+ ETA=0.009307\n+ KAPPA=2.226
