Version 4
SHEET 1 1028 856
WIRE 112 -32 112 -64
WIRE 112 80 112 48
WIRE 352 -64 112 -64
WIRE 384 160 384 128
WIRE 384 272 384 240
WIRE 384 352 384 320
WIRE 384 464 384 432
WIRE 384 544 384 512
WIRE 384 656 384 624
WIRE 608 -64 496 -64
WIRE 608 0 496 0
WIRE 800 128 384 128
WIRE 800 320 384 320
WIRE 800 512 384 512
FLAG 608 -64 x
FLAG 608 0 y
FLAG 384 272 0
FLAG 800 128 u
IOPIN 800 128 Out
FLAG 112 80 0
FLAG 384 464 0
FLAG 800 320 v
IOPIN 800 320 Out
FLAG 384 656 0
FLAG 800 512 w
IOPIN 800 512 Out
SYMBOL SpecialFunctions\\modulate2 352 -64 R0
WINDOW 39 29 122 Left 0
SYMATTR SpiceLine space=0 mark={f1}
SYMATTR InstName A4
SYMBOL voltage 112 -48 R0
SYMATTR InstName V1
SYMATTR Value 1
SYMBOL bv 384 144 R0
SYMATTR InstName B1
SYMATTR Value V=V(x)
SYMBOL bv 384 336 R0
SYMATTR InstName B2
SYMATTR Value V=-0.5*V(x)+sqrt(3)/2*V(y)
SYMBOL bv 384 528 R0
SYMATTR InstName B3
SYMATTR Value V=-0.5*V(x)-sqrt(3)/2*V(y)
TEXT 368 -408 Left 0 ;3-Phase-Generator\nThe new method with the "modulate2",\nthe sine-cosine generator\n \nSignals with any phase can be generated.\nExample: +120 degree in advance relative to SIN-out\nV= cos(120)*V(x) + sin(120)*V(y)\nV = -0.5 + sqrt(3)/2*V(y)
TEXT 512 -32 Left 0 ;modulate2
TEXT 64 -392 Left 0 !.param f1=1k
TEXT 64 -304 Left 0 !.tran 0 2m 0 1u
TEXT 656 288 Left 0 ;+120
TEXT 656 488 Left 0 ;+240
TEXT 680 104 Left 0 ;0
TEXT 64 -336 Left 0 !.options plotwinsize=0
RECTANGLE Normal 720 688 288 -160
