Version 4
SHEET 1 1200 1172
WIRE -336 416 -336 384
WIRE -336 528 -336 496
WIRE -304 16 -304 -16
WIRE -304 112 -304 96
WIRE -224 416 -224 384
WIRE -224 528 -224 496
WIRE -112 -16 -304 -16
WIRE -112 224 -160 224
WIRE -96 624 -160 624
WIRE -96 816 -144 816
WIRE 32 -16 -32 -16
WIRE 32 -16 32 -128
WIRE 32 192 32 -16
WIRE 48 624 -16 624
WIRE 48 624 48 512
WIRE 48 784 48 624
WIRE 96 -128 32 -128
WIRE 96 -16 32 -16
WIRE 96 192 32 192
WIRE 96 224 -32 224
WIRE 96 512 48 512
WIRE 96 624 48 624
WIRE 96 784 48 784
WIRE 96 816 -16 816
WIRE 128 176 128 144
WIRE 128 272 128 240
WIRE 128 768 128 736
WIRE 128 864 128 832
WIRE 224 -128 160 -128
WIRE 224 -16 176 -16
WIRE 224 -16 224 -128
WIRE 224 208 160 208
WIRE 224 208 224 -16
WIRE 224 512 160 512
WIRE 224 624 176 624
WIRE 224 624 224 512
WIRE 224 800 160 800
WIRE 224 800 224 624
WIRE 288 208 224 208
WIRE 288 800 224 800
FLAG -224 528 0
FLAG -160 224 0
FLAG -304 112 0
FLAG 288 208 out
IOPIN 288 208 Out
FLAG -336 528 0
FLAG -304 -16 in
FLAG -144 816 0
FLAG 288 800 out1
IOPIN 288 800 Out
FLAG -160 624 in
IOPIN -160 624 In
FLAG 128 736 V+
FLAG 128 864 V-
FLAG 128 144 V+
FLAG 128 272 V-
FLAG -336 384 V-
FLAG -224 384 V+
SYMBOL voltage -224 400 R0
WINDOW 123 0 0 Left 0
WINDOW 39 0 0 Left 0
SYMATTR InstName V1
SYMATTR Value 15
SYMBOL voltage -336 400 R0
WINDOW 123 0 0 Left 0
WINDOW 39 0 0 Left 0
SYMATTR InstName V2
SYMATTR Value -15
SYMBOL res -16 -32 R90
WINDOW 0 0 56 VBottom 0
WINDOW 3 32 56 VTop 0
SYMATTR InstName R2
SYMATTR Value 10k
SYMBOL voltage -304 0 R0
WINDOW 3 -102 157 Left 0
WINDOW 123 0 0 Left 0
WINDOW 39 0 0 Left 0
SYMATTR Value PULSE(-0.1 0.1 0 10ns 10ns 5us 10us)
SYMATTR InstName V3
SYMBOL cap 160 -144 R90
WINDOW 0 0 32 VBottom 0
WINDOW 3 32 32 VTop 0
SYMATTR InstName C1
SYMATTR Value 1p
SYMBOL res 192 -32 R90
WINDOW 0 0 56 VBottom 0
WINDOW 3 32 56 VTop 0
SYMATTR InstName R1
SYMATTR Value 100k
SYMBOL res -128 240 R270
WINDOW 0 32 56 VTop 0
WINDOW 3 0 56 VBottom 0
SYMATTR InstName R3
SYMATTR Value 100
SYMBOL res 0 608 R90
WINDOW 0 0 56 VBottom 0
WINDOW 3 32 56 VTop 0
SYMATTR InstName R4
SYMATTR Value 10k
SYMBOL cap 160 496 R90
WINDOW 0 0 32 VBottom 0
WINDOW 3 32 32 VTop 0
SYMATTR InstName C2
SYMATTR Value 1p
SYMBOL res 192 608 R90
WINDOW 0 0 56 VBottom 0
WINDOW 3 32 56 VTop 0
SYMATTR InstName R5
SYMATTR Value 100k
SYMBOL res -112 832 R270
WINDOW 0 32 56 VTop 0
WINDOW 3 0 56 VBottom 0
SYMATTR InstName R6
SYMATTR Value 100
SYMBOL Opamps\\LT1057 128 736 R0
SYMATTR InstName U2
SYMBOL Robertugo\\OPAMP5 128 144 R0
SYMATTR InstName U1
SYMATTR SpiceModel TL072
TEXT -394 -270 Left 0 !.tran 0 50u 0 50n
TEXT 256 128 Left 0 ;Universal Symbol \n"opamp2" used
TEXT 48 -408 Left 0 ;TL072 versus LT1057
TEXT -392 -304 Left 0 !.options plotwinsize=0
TEXT 264 696 Left 0 ;Specific symbol\nLT1057 used
