Version 4
SHEET 1 880 680
WIRE -128 224 -144 224
WIRE -112 192 -144 192
WIRE -96 192 -112 192
WIRE -96 224 -128 224
WIRE 16 192 0 192
WIRE 16 224 0 224
WIRE 64 224 16 224
WIRE 64 240 64 224
WIRE 96 224 96 160
WIRE 112 128 96 128
WIRE 112 160 96 160
WIRE 112 192 16 192
WIRE 176 112 176 64
WIRE 176 272 176 208
WIRE 208 272 176 272
WIRE 256 64 176 64
WIRE 272 208 272 80
WIRE 272 224 96 224
WIRE 272 224 272 208
WIRE 288 176 288 128
WIRE 304 176 288 176
WIRE 304 208 272 208
WIRE 304 240 64 240
WIRE 368 64 256 64
WIRE 368 160 368 64
WIRE 368 272 208 272
WIRE 368 272 368 256
WIRE 384 128 288 128
WIRE 400 80 272 80
FLAG 16 192 Y0
FLAG 16 224 Y1
FLAG -112 192 I
FLAG -128 224 INH
FLAG 96 128 xio
IOPIN 96 128 BiDir
FLAG 384 128 yio
IOPIN 384 128 BiDir
FLAG 256 64 V+
FLAG 400 80 xOy
FLAG 208 272 Vee
SYMBOL 1To2 -48 208 R0
SYMATTR InstName U1
SYMBOL Robertugo\\switchana 176 160 R0
SYMATTR InstName U2
SYMATTR SpiceModel 4066
SYMBOL Robertugo\\switchana 368 208 R0
SYMATTR InstName U3
SYMATTR SpiceModel 4066
