Version 4
SHEET 1 1136 748
WIRE -176 128 -192 128
WIRE -176 192 -192 192
WIRE -176 256 -192 256
WIRE -176 320 -192 320
WIRE 0 112 -16 112
WIRE 0 144 -16 144
WIRE 0 176 -16 176
WIRE 0 208 -16 208
WIRE 0 240 -16 240
WIRE 0 272 -16 272
WIRE 0 480 0 272
WIRE 48 240 0 240
WIRE 48 368 48 240
WIRE 64 112 0 112
WIRE 64 112 64 32
WIRE 96 64 96 0
WIRE 112 -32 96 -32
WIRE 112 0 96 0
WIRE 112 32 64 32
WIRE 144 400 144 336
WIRE 160 304 144 304
WIRE 160 336 144 336
WIRE 160 368 48 368
WIRE 176 -48 176 -96
WIRE 176 112 176 48
WIRE 208 112 176 112
WIRE 224 288 224 240
WIRE 224 448 224 384
WIRE 256 -96 176 -96
WIRE 256 144 0 144
WIRE 256 144 256 80
WIRE 256 448 224 448
WIRE 272 48 272 -80
WIRE 272 64 96 64
WIRE 272 64 272 48
WIRE 288 16 288 -32
WIRE 304 16 288 16
WIRE 304 48 272 48
WIRE 304 80 256 80
WIRE 304 240 224 240
WIRE 304 480 0 480
WIRE 304 480 304 416
WIRE 320 384 320 256
WIRE 320 400 144 400
WIRE 320 400 320 384
WIRE 336 352 336 304
WIRE 352 352 336 352
WIRE 352 384 320 384
WIRE 352 416 304 416
WIRE 368 -96 256 -96
WIRE 368 0 368 -96
WIRE 368 112 208 112
WIRE 368 112 368 96
WIRE 384 -32 288 -32
WIRE 400 -80 272 -80
WIRE 416 240 304 240
WIRE 416 336 416 240
WIRE 416 448 256 448
WIRE 416 448 416 432
WIRE 432 304 336 304
WIRE 448 256 320 256
WIRE 496 176 0 176
WIRE 496 176 496 96
WIRE 528 128 528 64
WIRE 544 32 528 32
WIRE 544 64 528 64
WIRE 544 96 496 96
WIRE 608 16 608 -32
WIRE 608 176 608 112
WIRE 640 176 608 176
WIRE 672 320 672 288
WIRE 688 -32 608 -32
WIRE 688 208 0 208
WIRE 688 208 688 144
WIRE 704 112 704 -16
WIRE 704 128 528 128
WIRE 704 128 704 112
WIRE 704 320 704 304
WIRE 720 80 720 32
WIRE 736 80 720 80
WIRE 736 112 704 112
WIRE 736 144 688 144
WIRE 800 -32 688 -32
WIRE 800 64 800 -32
WIRE 800 176 640 176
WIRE 800 176 800 160
WIRE 816 32 720 32
WIRE 832 -16 704 -16
FLAG -192 128 A
FLAG -192 192 B
FLAG -192 256 C
FLAG 0 112 A0
FLAG 0 144 A1
FLAG 0 176 B0
FLAG 0 208 B1
FLAG 0 240 C0
FLAG 0 272 C1
FLAG 96 -32 ax
IOPIN 96 -32 BiDir
FLAG 384 -32 ay
IOPIN 384 -32 BiDir
FLAG 256 -96 V+
FLAG 400 -80 axOay
FLAG 208 112 Vee
FLAG 704 304 Vss
FLAG 672 288 Vee
FLAG 528 32 bx
IOPIN 528 32 BiDir
FLAG 816 32 by
IOPIN 816 32 BiDir
FLAG 688 -32 V+
FLAG 832 -16 bxOby
FLAG 640 176 Vee
FLAG 144 304 cx
IOPIN 144 304 BiDir
FLAG 432 304 cy
IOPIN 432 304 BiDir
FLAG 304 240 V+
FLAG 448 256 cxOcy
FLAG 256 448 Vee
FLAG -192 320 INH
SYMBOL Deco53 -112 48 R0
WINDOW 0 -3 50 Left 0
WINDOW 3 -22 304 Left 0
SYMATTR InstName U2
SYMBOL Robertugo\\switchana 176 0 R0
SYMATTR InstName U3
SYMATTR SpiceModel 4066
SYMBOL Robertugo\\switchana 368 48 R0
SYMATTR InstName U4
SYMATTR SpiceModel 4066
SYMBOL Robertugo\\switchana 608 64 R0
SYMATTR InstName U1
SYMATTR SpiceModel 4066
SYMBOL Robertugo\\switchana 800 112 R0
SYMATTR InstName U5
SYMATTR SpiceModel 4066
SYMBOL Robertugo\\switchana 224 336 R0
SYMATTR InstName U6
SYMATTR SpiceModel 4066
SYMBOL Robertugo\\switchana 416 384 R0
SYMATTR InstName U7
SYMATTR SpiceModel 4066
TEXT 0 -48 Left 0 ;12
TEXT 480 -80 Left 0 ;14
TEXT 720 296 Left 0 ;8
TEXT 648 304 Left 0 ;7
TEXT 440 32 Left 0 ;2
TEXT 832 -40 Left 0 ;15
TEXT 96 272 Left 0 ;5
TEXT 528 256 Left 0 ;4
TEXT 456 -32 Left 0 ;13
TEXT 888 32 Left 0 ;1
TEXT 504 304 Left 0 ;3
TEXT -184 112 Left 0 ;11
TEXT -184 176 Left 0 ;10
TEXT -176 248 Left 0 ;9
TEXT -176 304 Left 0 ;6
TEXT 272 -112 Left 0 ;16
