Version 4
SHEET 1 880 680
WIRE -96 368 -96 240
WIRE -96 496 -96 368
WIRE -80 240 -96 240
WIRE -64 176 -80 176
WIRE -64 304 -80 304
WIRE -64 432 -80 432
WIRE -48 176 -64 176
WIRE -48 240 -80 240
WIRE -48 304 -64 304
WIRE -48 368 -96 368
WIRE -48 432 -64 432
WIRE -48 496 -96 496
WIRE 80 176 48 176
WIRE 80 208 48 208
WIRE 80 304 48 304
WIRE 80 336 48 336
WIRE 80 432 48 432
WIRE 80 464 48 464
WIRE 96 176 80 176
WIRE 96 208 80 208
WIRE 96 240 48 240
WIRE 96 304 80 304
WIRE 96 336 80 336
WIRE 96 368 48 368
WIRE 96 432 80 432
WIRE 96 464 80 464
WIRE 96 496 48 496
WIRE 224 416 224 400
WIRE 272 416 272 400
WIRE 320 416 320 400
FLAG -64 176 A
FLAG -64 304 B
FLAG -64 432 C
FLAG -80 240 inh
FLAG 80 176 ax
FLAG 80 208 ay
FLAG 96 240 axOay
FLAG 80 304 bx
FLAG 80 336 by
FLAG 80 432 cx
FLAG 80 464 cy
FLAG 96 368 bxOby
FLAG 96 496 cxOcy
FLAG 224 400 Vee
FLAG 272 400 Vss
FLAG 320 400 V+
SYMBOL 4053_tercio 0 208 R0
SYMATTR InstName X1
SYMATTR SpiceModel VDD 0
SYMBOL 4053_tercio 0 336 R0
SYMATTR InstName X3
SYMATTR SpiceModel VDD 0
SYMBOL 4053_tercio 0 464 R0
SYMATTR InstName X4
SYMATTR SpiceModel VDD 0
