Version 4
SHEET 1 880 680
WIRE -1216 -208 -1392 -208
WIRE -1152 -208 -1216 -208
WIRE -1056 -208 -1088 -208
WIRE -1024 -208 -1056 -208
WIRE -944 -208 -1024 -208
WIRE -832 -208 -880 -208
WIRE -688 -208 -832 -208
WIRE -1216 -192 -1216 -208
WIRE -688 -192 -688 -208
WIRE -832 -176 -832 -208
WIRE -1600 -160 -1712 -160
WIRE -1552 -160 -1600 -160
WIRE -1440 -160 -1472 -160
WIRE -1360 -160 -1440 -160
WIRE -1152 -160 -1152 -208
WIRE -1088 -160 -1088 -208
WIRE -1024 -160 -1024 -208
WIRE -1152 -80 -1168 -80
WIRE -1024 -80 -1024 -96
WIRE -1024 -80 -1088 -80
WIRE -832 -80 -832 -112
WIRE -832 -80 -1024 -80
WIRE -752 -80 -832 -80
WIRE -688 -80 -688 -112
WIRE -688 -80 -752 -80
WIRE -1712 -64 -1712 -96
WIRE -1552 -64 -1552 -80
WIRE -1552 -64 -1632 -64
WIRE -752 -64 -752 -80
WIRE -1472 -48 -1472 -80
WIRE -1440 -48 -1472 -48
WIRE -1280 -32 -1296 -32
WIRE -1168 -32 -1168 -80
WIRE -1168 -32 -1200 -32
WIRE -1120 -32 -1168 -32
WIRE -1056 -32 -1120 -32
WIRE -896 -32 -1056 -32
WIRE -800 -32 -832 -32
WIRE -688 -32 -688 -80
WIRE -1600 -16 -1600 -160
WIRE -1600 -16 -1616 -16
WIRE -1120 0 -1120 -32
WIRE -1168 16 -1168 -32
WIRE -1680 32 -1712 32
WIRE -800 32 -800 -32
WIRE -1360 64 -1360 -160
WIRE -1264 64 -1360 64
WIRE -1232 64 -1264 64
WIRE -688 64 -688 32
WIRE -688 64 -768 64
WIRE -1600 80 -1616 80
WIRE -1296 96 -1296 -32
WIRE -688 96 -688 64
WIRE -1264 112 -1264 64
WIRE -1056 112 -1056 -32
WIRE -1712 128 -1712 32
WIRE -1552 128 -1552 -64
WIRE -1392 128 -1392 -208
WIRE -1120 128 -1120 64
WIRE -912 128 -944 128
WIRE -800 128 -800 96
WIRE -800 128 -832 128
WIRE -1296 192 -1296 160
WIRE -1296 192 -1328 192
WIRE -1328 208 -1328 192
WIRE -1712 240 -1712 208
WIRE -1600 240 -1600 80
WIRE -1600 240 -1712 240
WIRE -1552 240 -1552 208
WIRE -1552 240 -1600 240
WIRE -1440 240 -1440 -48
WIRE -1440 240 -1552 240
WIRE -1392 240 -1392 208
WIRE -1392 240 -1440 240
WIRE -1296 240 -1296 192
WIRE -1296 240 -1392 240
WIRE -1264 240 -1264 192
WIRE -1264 240 -1296 240
WIRE -1168 240 -1168 112
WIRE -1168 240 -1264 240
WIRE -1120 240 -1120 192
WIRE -1120 240 -1168 240
WIRE -1056 240 -1056 176
WIRE -1056 240 -1120 240
FLAG -832 -208 OutRect
FLAG -752 -64 0
FLAG -1056 -208 SecOut
FLAG -1440 -160 BQout
IOPIN -1440 -160 Out
FLAG -1328 208 0
FLAG -1216 -192 +Vh
IOPIN -1216 -192 Out
FLAG -944 128 +Vh
IOPIN -944 128 In
FLAG -688 96 Vg2
IOPIN -688 96 Out
SYMBOL voltage -1392 112 M0
WINDOW 0 -62 67 Bottom 0
WINDOW 3 -2 73 Bottom 0
WINDOW 123 41 81 Top 0
SYMATTR InstName Vpwr
SYMATTR Value 120v
SYMATTR SpiceLine Rser=1m Cpar=1m
SYMBOL res -1280 96 R0
WINDOW 0 96 50 Right 0
WINDOW 3 56 87 Right 0
SYMATTR InstName Rbmin
SYMATTR Value 39
SYMATTR SpiceLine tol=1 pwr=0.1
SYMBOL polcap -816 -176 M0
WINDOW 3 -9 48 Right 0
WINDOW 0 -23 24 Right 0
SYMATTR Value 220µ
SYMATTR InstName Cf1
SYMATTR Description Capacitor
SYMATTR Type cap
SYMATTR SpiceLine V=25 Irms=470m Rser=0.16 MTBF=2000 Lser=0 mfg="Nichicon" pn="UPR1E471MPH" type="Al electrolytic" ppPkg=1
SYMBOL cap -1072 112 R0
WINDOW 0 -9 115 VLeft 0
WINDOW 3 -7 21 VLeft 0
SYMATTR InstName Csnub
SYMATTR Value 10n
SYMBOL ind2 -1168 -176 R0
WINDOW 0 -9 55 VRight 0
WINDOW 3 -7 -6 VRight 0
SYMATTR InstName LP
SYMATTR Value 10m
SYMATTR Type ind
SYMATTR SpiceLine Rser=1 Rpar=1430 Cpar=170p
SYMBOL ind2 -1072 -64 R180
WINDOW 0 -4 32 VRight 0
WINDOW 3 -4 91 VRight 0
SYMATTR InstName LS
SYMATTR Value 100µ
SYMATTR Type ind
SYMATTR SpiceLine Rser=.1
SYMBOL diode -944 -192 R270
WINDOW 0 32 32 VTop 0
WINDOW 3 0 32 VBottom 0
SYMATTR InstName Drect
SYMATTR Value BYW96E
SYMBOL npn3 -1232 16 R0
WINDOW 3 24 50 Left 0
WINDOW 0 -9 3 Left 0
SYMATTR Value BU508A
SYMATTR InstName Qout
SYMBOL cap -1040 -160 R0
WINDOW 0 97 30 Right 0
WINDOW 3 104 58 Right 0
SYMATTR InstName Cs
SYMATTR Value 20n
SYMBOL res -704 -208 R0
WINDOW 0 -37 33 Left 0
WINDOW 3 -35 67 Left 0
SYMATTR InstName RL
SYMATTR Value 12
SYMBOL diode -1104 192 R180
WINDOW 0 29 34 Left 0
WINDOW 3 38 -87 Invisible 0
SYMATTR InstName Dd
SYMATTR Value BYW96E
SYMBOL ind -1296 -16 R270
WINDOW 0 62 10 VBottom 0
WINDOW 3 62 65 VBottom 0
SYMATTR InstName Ly
SYMATTR Value 1m5
SYMATTR SpiceLine Ipk=10 Rser=1 Rpar=100k Cpar=5p
SYMBOL cap -1312 96 R0
WINDOW 0 -30 48 Left 0
WINDOW 3 -33 24 Left 0
SYMATTR InstName Cy
SYMATTR Value 1µ
SYMATTR SpiceLine V=50 Irms=6.038 Rser=0.017 MTBF=0 Lser=0 mfg="KEMET" pn="C1210C105K5RAC" type="X7R" ppPkg=1
SYMBOL ind2 -1568 -176 R0
WINDOW 0 -9 86 VRight 0
WINDOW 3 -11 21 VRight 0
SYMATTR InstName L1
SYMATTR Value 220m
SYMATTR Type ind
SYMATTR SpiceLine Rser=100 Rpar=1430 Cpar=170p
SYMBOL ind2 -1456 -64 R180
WINDOW 0 -12 -12 VRight 0
WINDOW 3 -15 38 VRight 0
SYMATTR InstName L2
SYMATTR Value 1m
SYMATTR Type ind
SYMATTR SpiceLine Rser=1m
SYMBOL npn3 -1680 -16 R0
WINDOW 3 24 50 Left 0
WINDOW 0 -9 3 Left 0
SYMATTR Value BC546B
SYMATTR InstName Qdrv
SYMBOL voltage -1712 112 M0
WINDOW 0 -40 23 Bottom 0
WINDOW 3 68 -35 VBottom 0
WINDOW 123 41 81 Top 0
SYMATTR InstName Vh
SYMATTR Value PULSE(0 5 0 1u 1u 50u 64u)
SYMATTR SpiceLine Rser=1k
SYMBOL cap -1728 -160 R0
WINDOW 0 -22 11 Left 0
WINDOW 3 -31 51 Left 0
SYMATTR InstName C2
SYMATTR Value 4n7
SYMBOL res -1616 -80 R90
WINDOW 0 -1 66 VBottom 0
WINDOW 3 -29 20 VTop 0
SYMATTR InstName R2
SYMATTR Value 4k7
SYMBOL diode -1104 64 R180
WINDOW 0 29 34 Left 0
WINDOW 3 38 -87 Invisible 0
SYMATTR InstName Dd1
SYMATTR Value BYW96E
SYMBOL voltage -1552 112 M0
WINDOW 0 -40 23 Bottom 0
WINDOW 3 -2 73 Bottom 0
WINDOW 123 41 81 Top 0
SYMATTR InstName Vhdrv
SYMATTR Value 12
SYMATTR SpiceLine Rser=1m Cpar=1m
SYMBOL diode -896 -16 R270
WINDOW 0 24 68 VTop 0
WINDOW 3 49 -28 VBottom 0
SYMATTR InstName D1
SYMATTR Value BYW96E
SYMBOL res -928 144 R270
WINDOW 0 32 56 VTop 0
WINDOW 3 0 56 VBottom 0
SYMATTR InstName R1
SYMATTR Value 5.6e6
SYMBOL Robertugo\\Pote -784 128 R180
WINDOW 123 72 111 Center 0
SYMATTR Value2 Set=0.5
SYMATTR InstName U1
SYMATTR Value Rt=1e6
SYMBOL cap -672 32 R180
WINDOW 0 24 64 Left 0
WINDOW 3 24 8 Left 0
SYMATTR InstName C1
SYMATTR Value 470p
TEXT -1120 -216 VRight 0 !K2 LP LS .93
TEXT -1512 -40 VLeft 0 !K1 L1 L2 .99
TEXT -1784 -184 Left 0 !.tran 0 10m 0 startup
TEXT -1048 168 Left 0 ;R1=4M7 a 5M6\nC1=4n7 a 10n 1Kv\nD1=BA159 o FR157
