Version 4
SHEET 1 880 680
WIRE -656 0 -880 0
WIRE -400 0 -576 0
WIRE -384 0 -400 0
WIRE -288 0 -320 0
WIRE -192 0 -224 0
WIRE -976 32 -992 32
WIRE -880 32 -880 0
WIRE -880 32 -896 32
WIRE -768 32 -880 32
WIRE -672 32 -704 32
WIRE -640 32 -672 32
WIRE -560 32 -640 32
WIRE -544 32 -560 32
WIRE -544 64 -544 32
WIRE -80 64 -80 48
WIRE -640 80 -640 32
WIRE -992 96 -992 32
WIRE -880 96 -880 32
WIRE -768 96 -880 96
WIRE -688 96 -704 96
WIRE -192 112 -192 0
WIRE -480 128 -496 128
WIRE -400 128 -400 0
WIRE -400 128 -416 128
WIRE -304 128 -400 128
WIRE -400 160 -400 128
WIRE -768 176 -880 176
WIRE -688 176 -688 96
WIRE -688 176 -704 176
WIRE -640 176 -640 144
WIRE -640 176 -688 176
WIRE -544 176 -544 144
WIRE -544 176 -640 176
WIRE -496 176 -496 128
WIRE -304 176 -304 128
WIRE -80 176 -80 144
WIRE -64 176 -80 176
WIRE -80 192 -80 176
WIRE -992 288 -992 176
WIRE -880 288 -880 176
WIRE -880 288 -992 288
WIRE -768 288 -880 288
WIRE -672 288 -672 32
WIRE -672 288 -704 288
WIRE -640 288 -640 176
WIRE -496 288 -496 256
WIRE -496 288 -640 288
WIRE -400 288 -400 240
WIRE -400 288 -496 288
WIRE -304 288 -304 240
WIRE -304 288 -400 288
WIRE -192 288 -192 192
WIRE -192 288 -304 288
WIRE -80 288 -80 272
WIRE -80 288 -192 288
WIRE -640 304 -640 288
FLAG -640 304 0
FLAG -560 32 B1
FLAG -80 48 B1
IOPIN -80 48 In
FLAG -64 176 5
IOPIN -64 176 Out
SYMBOL diode -704 80 R90
WINDOW 0 59 117 VBottom 0
WINDOW 3 33 37 VTop 0
SYMATTR InstName D1
SYMATTR Value 1N4007
SYMBOL diode -768 16 M90
WINDOW 0 58 -50 VBottom 0
WINDOW 3 32 23 VTop 0
SYMATTR InstName D2
SYMATTR Value 1N4007
SYMBOL diode -704 160 R90
WINDOW 0 0 32 VBottom 0
WINDOW 3 32 38 VTop 0
SYMATTR InstName D3
SYMATTR Value 1N4007
SYMBOL diode -768 272 M90
WINDOW 0 0 32 VBottom 0
WINDOW 3 32 29 VTop 0
SYMATTR InstName D4
SYMATTR Value 1N4007
SYMBOL voltage -992 80 R0
WINDOW 0 -18 61 Left 0
WINDOW 3 53 4 VRight 0
WINDOW 123 0 0 Left 0
WINDOW 39 24 132 Left 0
SYMATTR InstName Vac
SYMATTR Value SINE(0 310 50)
SYMBOL res -880 16 R90
WINDOW 0 0 56 VBottom 0
WINDOW 3 32 56 VTop 0
SYMATTR InstName Rfus
SYMATTR Value 10
SYMATTR SpiceLine tol=1 pwr=0.1
SYMBOL polcap -656 80 R0
WINDOW 3 24 64 Left 0
WINDOW 0 19 14 Left 0
SYMATTR Value 180µ
SYMATTR InstName Cf1
SYMATTR Description Capacitor
SYMATTR Type cap
SYMATTR SpiceLine V=350 Irms=413m Rser=0.5 Lser=0
SYMBOL res -384 256 R180
WINDOW 0 -57 104 Left 0
WINDOW 3 -34 65 Left 0
SYMATTR InstName Rstart
SYMATTR Value 3k5
SYMATTR SpiceLine tol=10 pwr=4
SYMBOL res -560 -16 R90
WINDOW 0 16 104 VBottom 0
WINDOW 3 -13 3 VTop 0
SYMATTR InstName Rs
SYMATTR Value 24k
SYMBOL polcap -320 176 R0
WINDOW 3 24 64 Left 0
SYMATTR Value 100µ
SYMATTR InstName Cf2
SYMATTR Description Capacitor
SYMATTR Type cap
SYMATTR SpiceLine V=16 Irms=1.436 Rser=0.08 Lser=0 mfg="KEMET" pn="T495X107K016AS4823" type="Tantalum"
SYMBOL diode -320 -16 R90
WINDOW 0 66 34 VBottom 0
WINDOW 3 32 32 Invisible 0
SYMATTR InstName D6
SYMATTR Value MURS120
SYMBOL Robertugo\\SwTime -256 0 R0
WINDOW 39 3 41 Center 0
WINDOW 40 4 63 Center 0
SYMATTR SpiceLine Ton=2.01
SYMATTR SpiceLine2 Toff=3
SYMATTR InstName U1
SYMBOL voltage -192 96 R0
WINDOW 0 -50 13 Left 0
WINDOW 3 -22 58 Left 0
SYMATTR InstName V2
SYMATTR Value 12.5
SYMATTR SpiceLine Rser=.1
SYMBOL res -560 48 R0
WINDOW 0 -42 0 Left 0
WINDOW 3 -27 24 Left 0
SYMATTR InstName RlTv
SYMATTR Value 820
SYMBOL Robertugo\\SwTime -448 128 R0
WINDOW 39 -19 -60 Center 0
WINDOW 40 -18 -39 Center 0
WINDOW 3 -52 -84 Left 0
SYMATTR SpiceLine Ton=2
SYMATTR SpiceLine2 Toff=3
SYMATTR InstName U2
SYMBOL res -480 272 R180
WINDOW 0 36 76 Left 0
WINDOW 3 36 40 Left 0
SYMATTR InstName RlCi
SYMATTR Value 100
SYMBOL res -96 48 R0
SYMATTR InstName R1
SYMATTR Value 270k
SYMBOL res -96 176 R0
SYMATTR InstName R2
SYMATTR Value 8k2
TEXT -592 312 Left 0 !.tran 3
