Version 4
SHEET 1 884 1028
WIRE -64 208 -208 208
WIRE 32 208 0 208
WIRE 96 208 32 208
WIRE 208 208 160 208
WIRE 272 208 208 208
WIRE 368 208 336 208
WIRE -208 240 -208 208
WIRE 32 240 32 208
WIRE 208 240 208 208
WIRE 368 240 368 208
WIRE 208 336 208 320
WIRE 368 336 368 320
WIRE -208 352 -208 320
WIRE 32 352 32 320
WIRE 32 464 32 432
WIRE -64 656 -208 656
WIRE 32 656 0 656
WIRE 96 656 32 656
WIRE 208 656 160 656
WIRE 272 656 208 656
WIRE 368 656 336 656
WIRE -208 688 -208 656
WIRE 32 688 32 656
WIRE 208 688 208 656
WIRE 368 688 368 656
WIRE 208 784 208 768
WIRE 368 784 368 768
WIRE -208 800 -208 768
WIRE 32 800 32 768
WIRE 32 912 32 880
FLAG 208 336 0
FLAG 32 464 0
FLAG -208 352 0
FLAG 368 336 0
FLAG 208 784 0
FLAG 32 912 0
FLAG -208 800 0
FLAG 368 784 0
SYMBOL diode 96 224 R270
WINDOW 0 32 32 VTop 0
WINDOW 3 0 32 VBottom 0
SYMATTR InstName D1
SYMATTR Value PIN
SYMBOL cap 0 192 R90
WINDOW 0 0 32 VBottom 0
WINDOW 3 32 32 VTop 0
SYMATTR InstName C1
SYMATTR Value .01µ
SYMBOL ind 192 224 R0
SYMATTR InstName L1
SYMATTR Value 100µ
SYMBOL ind 16 224 R0
SYMATTR InstName L2
SYMATTR Value 100µ
SYMBOL voltage -208 224 R0
WINDOW 123 0 0 Left 0
WINDOW 39 24 132 Left 0
SYMATTR SpiceLine Rser=50
SYMATTR InstName V1
SYMATTR Value SINE(0 10m 50Meg)
SYMBOL cap 336 192 R90
WINDOW 0 0 32 VBottom 0
WINDOW 3 32 32 VTop 0
SYMATTR InstName C2
SYMATTR Value .01µ
SYMBOL res 352 224 R0
SYMATTR InstName R1
SYMATTR Value 50
SYMBOL current 32 432 M180
WINDOW 0 24 88 Left 0
WINDOW 3 24 0 Left 0
SYMATTR InstName I1
SYMATTR Value PWL(0 0 1m 1m)
SYMBOL cap 0 640 R90
WINDOW 0 0 32 VBottom 0
WINDOW 3 32 32 VTop 0
SYMATTR InstName C3
SYMATTR Value .01µ
SYMBOL ind 192 672 R0
SYMATTR InstName L3
SYMATTR Value 100µ
SYMBOL ind 16 672 R0
SYMATTR InstName L4
SYMATTR Value 100µ
SYMBOL voltage -208 672 R0
WINDOW 123 0 0 Left 0
WINDOW 39 24 132 Left 0
SYMATTR SpiceLine Rser=50
SYMATTR InstName V2
SYMATTR Value SINE(0 10m 50Meg)
SYMBOL cap 336 640 R90
WINDOW 0 0 32 VBottom 0
WINDOW 3 32 32 VTop 0
SYMATTR InstName C4
SYMATTR Value .01µ
SYMBOL res 352 672 R0
SYMATTR InstName R2
SYMATTR Value 50
SYMBOL current 32 880 M180
WINDOW 0 24 88 Left 0
WINDOW 3 24 0 Left 0
SYMATTR InstName I2
SYMATTR Value PWL(0 0 1m 1m)
SYMBOL Miscel\\Pin_Diode 96 672 R270
WINDOW 0 32 32 VTop 0
WINDOW 38 -30 25 VTop 0
SYMATTR InstName U1
TEXT 200 120 Left 0 !.model PIN D(tt=1u)
TEXT -224 -88 Left 0 !.tran 200u
TEXT -224 -56 Left 0 !.options plotwinsize=0
TEXT 64 568 Left 0 !.include pin_dio_infineon.lib  ; Some models from Infineon
TEXT -224 -416 Left 0 ;PIN-Diodes Test Circuit   based on an idea from Mike Engelhardt\n \nIt shows the minimum current necessary to switch a certain level of signal voltage.\nThe standard diode symbol can be used fior a subcircuit, if the Prefix is changed to X . \n(Move the cursor over the diode, Ctrl-right mouse button, then change prefix D to X)
TEXT -224 120 Left 0 ;Using a simple .MODEL statement
TEXT -232 568 Left 0 ;Using a subcircuit model
TEXT 88 -248 Left 0 ;* PIN-Diode Models from Infineon\n*\n* BA592, BA892, BAT18    single diode\n* BAR88_02V              single diode\n* BAR15_0                pseudo single BAR14,15,16\n* BAR15_1                2 diodes with common cathode\n*\n* http://www.infineon.com/cmc_upload/0/000/011/828/appli034.pdf\n*
