Version 4
SHEET 1 880 680
WIRE 128 96 64 96
WIRE 432 96 352 96
WIRE 64 112 64 96
WIRE 64 112 -32 112
WIRE 80 112 64 112
WIRE 128 112 128 96
WIRE 240 112 240 80
WIRE 240 112 176 112
WIRE 304 112 240 112
WIRE 352 112 352 96
WIRE 432 112 432 96
WIRE 432 112 400 112
WIRE 496 112 432 112
WIRE 496 128 496 112
WIRE -32 160 -32 112
WIRE 128 192 128 160
WIRE 208 192 128 192
WIRE 240 192 208 192
WIRE 352 192 352 160
WIRE 352 192 240 192
WIRE 240 208 240 192
WIRE -32 304 -32 240
WIRE 240 304 240 288
FLAG 496 128 0
FLAG 240 304 0
FLAG -32 304 0
FLAG 240 80 out
IOPIN 240 80 Out
FLAG 208 192 in
SYMBOL nmos_035 304 160 R270
SYMATTR InstName M1
SYMATTR Value2 W=3u
SYMATTR Prefix X
SYMBOL pmos_035 80 160 R270
SYMATTR InstName M2
SYMATTR Value2 W=6u
SYMATTR Prefix X
SYMBOL voltage -32 144 R0
WINDOW 123 0 0 Left 0
WINDOW 39 0 0 Left 0
SYMATTR InstName VDD
SYMATTR Value 3.3V
SYMBOL voltage 240 192 R0
WINDOW 3 42 57 Left 0
WINDOW 123 43 82 Left 0
WINDOW 39 0 0 Left 0
SYMATTR InstName Vin
SYMATTR Value PULSE(0 3.3 0 1n 1n 9n 20n)
SYMATTR Value2 AC 1
TEXT -90 -72 Left 0 !;tran 0 100n 0 1n
TEXT 312 216 Left 0 !.lib 5827_035.lib
TEXT -96 -48 Left 0 !.ac dec 101 1k 1g
TEXT -96 -24 Left 0 !;dc Vin 0 3.3 0.01
