Version 4
SHEET 1 880 680
WIRE 192 -160 192 -192
WIRE 192 -160 64 -160
WIRE 352 -160 192 -160
WIRE 64 -96 64 -160
WIRE 128 -96 64 -96
WIRE 352 -96 352 -160
WIRE 416 -96 352 -96
WIRE 352 -80 352 -96
WIRE -160 -48 -224 -48
WIRE 16 -48 -160 -48
WIRE 128 -48 128 -96
WIRE 128 -48 64 -48
WIRE 304 -32 256 -32
WIRE 416 -32 416 -96
WIRE 416 -32 352 -32
WIRE 256 32 256 -32
WIRE 256 32 -64 32
WIRE 64 64 64 0
WIRE 208 64 64 64
WIRE 352 64 352 16
WIRE 352 64 208 64
WIRE 576 64 352 64
WIRE 208 112 208 64
WIRE -160 160 -160 -48
WIRE 160 160 -160 160
WIRE 336 160 208 160
WIRE -64 256 -64 32
WIRE -64 256 -224 256
WIRE 160 256 -64 256
WIRE 336 256 336 160
WIRE 336 256 208 256
WIRE 208 320 208 304
WIRE 336 320 336 256
WIRE 336 320 208 320
WIRE 208 336 208 320
FLAG 208 336 GND
IOPIN 208 336 BiDir
FLAG 192 -192 VDD
IOPIN 192 -192 BiDir
FLAG -224 256 A
IOPIN -224 256 In
FLAG -224 -48 B
IOPIN -224 -48 In
FLAG 576 64 C
IOPIN 576 64 Out
SYMBOL nmos_035 160 208 R0
SYMATTR InstName M1
SYMATTR Prefix X
SYMBOL pmos_035 304 -80 R0
SYMATTR InstName M2
SYMATTR Value2 W=3u
SYMATTR Prefix X
SYMBOL nmos_035 160 112 R0
SYMATTR InstName M3
SYMATTR Prefix X
SYMBOL pmos_035 16 -96 R0
SYMATTR InstName M4
SYMATTR Value2 W=3u
SYMATTR Prefix X
