Version 4
SHEET 1 880 680
WIRE -320 -96 -512 -96
WIRE -256 -96 -320 -96
WIRE -48 -96 -256 -96
WIRE 32 -96 -48 -96
WIRE 240 -96 32 -96
WIRE 304 -96 240 -96
WIRE -320 -48 -320 -96
WIRE -256 -48 -320 -48
WIRE -160 -48 -208 -48
WIRE -96 -48 -160 -48
WIRE 32 -48 32 -96
WIRE 32 -48 -48 -48
WIRE 192 -48 112 -48
WIRE 304 -48 304 -96
WIRE 304 -48 240 -48
WIRE -512 -32 -512 -96
WIRE -160 32 -160 -48
WIRE -48 32 -48 0
WIRE -48 32 -160 32
WIRE 112 32 112 -48
WIRE 112 32 -48 32
WIRE -256 64 -256 0
WIRE -160 64 -256 64
WIRE -256 80 -256 64
WIRE -48 80 -48 32
WIRE -512 96 -512 48
WIRE 240 96 240 0
WIRE 352 96 240 96
WIRE -256 128 -384 128
WIRE -160 128 -160 64
WIRE -160 128 -208 128
WIRE -96 128 -160 128
WIRE 64 128 -48 128
WIRE -48 208 -48 176
WIRE 240 208 240 96
WIRE -256 320 -256 176
WIRE -48 320 -48 288
WIRE 240 320 240 288
WIRE -384 384 -384 128
WIRE -256 384 -384 384
WIRE -128 384 -256 384
WIRE -48 384 -128 384
WIRE 64 384 64 128
WIRE 64 384 -48 384
WIRE 240 384 64 384
WIRE -128 416 -128 384
FLAG -128 416 0
FLAG -512 96 0
FLAG 352 96 Vref
IOPIN 352 96 Out
SYMBOL nmos_035 -96 80 R0
SYMATTR InstName M1
SYMATTR Value2 W=5u
SYMATTR SpiceLine L=5u
SYMATTR Prefix X
SYMBOL nmos_035 -208 80 M0
SYMATTR InstName M2
SYMATTR Value2 W=5u
SYMATTR SpiceLine L=5u
SYMATTR Prefix X
SYMBOL rpn_035 -64 192 R0
WINDOW 0 -42 38 Left 0
WINDOW 3 -57 64 Left 0
WINDOW 123 75 40 Center 0
WINDOW 39 73 65 Center 0
WINDOW 40 0 0 Invisible 0
SYMATTR InstName U1
SYMATTR Value2 W=1u
SYMATTR SpiceLine L=8u
SYMATTR SpiceLine2 ""
SYMBOL rpn_035 224 192 R0
WINDOW 0 -43 38 Left 0
WINDOW 3 -57 64 Left 0
WINDOW 123 75 40 Center 0
WINDOW 39 73 65 Center 0
WINDOW 40 0 0 Invisible 0
SYMATTR InstName U2
SYMATTR Value2 W=1u
SYMATTR SpiceLine L=100u
SYMATTR SpiceLine2 ""
SYMBOL wdiode -272 320 R0
WINDOW 123 46 42 Left 0
WINDOW 39 0 0 Invisible 0
SYMATTR Value2 n=1
SYMATTR SpiceLine ""
SYMATTR InstName U3
SYMBOL wdiode -64 320 R0
WINDOW 123 46 42 Left 0
WINDOW 39 0 0 Invisible 0
SYMATTR Value2 n=8
SYMATTR SpiceLine ""
SYMATTR InstName U4
SYMBOL wdiode 224 320 R0
WINDOW 123 46 42 Left 0
WINDOW 39 0 0 Invisible 0
SYMATTR Value2 n=1
SYMATTR SpiceLine ""
SYMATTR InstName U5
SYMBOL pmos_035 -208 -96 M0
SYMATTR InstName M4
SYMATTR Value2 W=10u
SYMATTR SpiceLine L=5u
SYMATTR Prefix X
SYMBOL pmos_035 -96 -96 R0
SYMATTR InstName M5
SYMATTR Value2 W=10u
SYMATTR SpiceLine L=5u
SYMATTR Prefix X
SYMBOL pmos_035 192 -96 R0
SYMATTR InstName M3
SYMATTR Value2 W=10u
SYMATTR SpiceLine L=5u
SYMATTR Prefix X
SYMBOL voltage -512 -48 R0
WINDOW 123 0 0 Left 0
WINDOW 39 0 0 Left 0
SYMATTR InstName V1
SYMATTR Value 3.3V
TEXT -560 200 Left 0 !.lib 5827_035.lib
TEXT -560 176 Left 0 !.step temp -50 150 2
TEXT -562 154 Left 0 !.op
TEXT -416 -152 Left 0 ;ECEN4827/5827: temperature sweep in a simple bandgap reference example
TEXT -432 -128 Left 0 ;Parameters have not been adjusted for zero temperature coefficient at room temperature
