Version 4
SHEET 1 880 680
WIRE -720 224 -720 64
WIRE -720 480 -720 304
WIRE -640 480 -720 480
WIRE -480 336 -480 272
WIRE -480 480 -640 480
WIRE -480 480 -480 416
WIRE -336 480 -480 480
WIRE -336 480 -336 400
WIRE -288 64 -720 64
WIRE -288 144 -288 64
WIRE -272 400 -336 400
WIRE -256 144 -288 144
WIRE -144 144 -176 144
WIRE -144 272 -480 272
WIRE -144 400 -192 400
WIRE -16 64 -288 64
WIRE -16 112 -16 64
WIRE -16 480 -336 480
WIRE -16 480 -16 432
WIRE 144 400 112 400
WIRE 144 480 -16 480
WIRE 144 480 144 400
WIRE 224 272 112 272
WIRE 224 336 224 272
WIRE 224 480 144 480
WIRE 224 480 224 416
WIRE 336 144 112 144
WIRE 336 176 336 144
WIRE 336 480 224 480
WIRE 336 480 336 256
FLAG -640 480 0
SYMBOL voltage -720 208 R0
WINDOW 123 0 0 Left 0
WINDOW 39 0 0 Left 0
SYMATTR InstName V1
SYMATTR Value 15
SYMBOL res -496 320 R0
SYMATTR InstName R1
SYMATTR Value 200k
SYMBOL res 208 320 R0
SYMATTR InstName R2
SYMATTR Value 10k
SYMBOL res 320 160 R0
SYMATTR InstName R3
SYMATTR Value 10k
SYMBOL res -176 384 R90
WINDOW 0 0 56 VBottom 0
WINDOW 3 32 56 VTop 0
SYMATTR InstName R5
SYMATTR Value 100k
SYMBOL res -160 128 R90
WINDOW 0 0 56 VBottom 0
WINDOW 3 32 56 VTop 0
SYMATTR InstName R4
SYMATTR Value 10k
SYMBOL EXTRA\\UC\\UCC38083\\UCC38083A1 -16 272 R0
SYMATTR InstName U1
TEXT -754 504 Left 0 !.tran 1s startup
TEXT 16 80 Left 0 !.options abstol=1e-8 chgtol=1e-8 reltol=1e-2
