Version 4
SHEET 1 1424 796
WIRE -496 416 -512 416
WIRE -480 224 -512 224
WIRE -480 336 -480 224
WIRE -464 176 -464 160
WIRE -464 352 -464 176
WIRE -448 128 -512 128
WIRE -448 160 -464 160
WIRE -448 368 -512 368
WIRE -448 368 -448 272
WIRE -432 272 -448 272
WIRE -432 304 -512 304
WIRE -416 112 -416 80
WIRE -416 224 -480 224
WIRE -416 224 -416 176
WIRE -400 256 -400 208
WIRE -400 336 -480 336
WIRE -400 336 -400 320
WIRE -368 368 -448 368
WIRE -368 416 -416 416
WIRE -368 416 -368 368
WIRE -352 144 -384 144
WIRE -352 288 -368 288
WIRE -336 80 -416 80
WIRE -336 208 -400 208
WIRE -336 208 -336 80
WIRE -320 416 -368 416
WIRE -304 144 -352 144
WIRE -304 160 -304 144
WIRE -304 288 -352 288
WIRE -304 288 -304 208
WIRE -288 160 -304 160
WIRE -288 208 -304 208
WIRE -240 80 -336 80
WIRE -240 128 -240 80
WIRE -240 336 -400 336
WIRE -240 336 -240 240
WIRE -192 352 -464 352
WIRE -192 416 -240 416
WIRE -192 416 -192 352
WIRE -176 160 -192 160
WIRE -176 160 -176 144
WIRE -144 144 -176 144
WIRE -144 144 -144 128
WIRE -144 208 -176 208
WIRE -144 304 -144 208
WIRE -144 416 -192 416
WIRE -96 80 -240 80
WIRE -96 192 -96 80
WIRE 0 144 -144 144
WIRE 0 192 -96 192
WIRE 0 336 -240 336
WIRE 0 336 0 240
WIRE 0 416 -64 416
WIRE 0 416 0 336
WIRE 96 160 48 160
WIRE 96 160 96 128
WIRE 112 160 96 160
WIRE 144 304 -144 304
WIRE 144 368 144 304
WIRE 160 368 144 368
WIRE 208 160 192 160
WIRE 208 160 208 128
WIRE 208 400 208 384
WIRE 224 288 208 288
WIRE 240 80 -96 80
WIRE 240 160 208 160
WIRE 240 160 240 80
WIRE 240 336 208 336
WIRE 240 400 208 400
WIRE 240 400 240 336
WIRE 240 416 0 416
WIRE 240 416 240 400
FLAG -464 176 N1
FLAG -512 368 5
IOPIN -512 368 In
FLAG 224 288 7
IOPIN 224 288 Out
FLAG -512 416 8
IOPIN -512 416 In
FLAG 96 128 4
IOPIN 96 128 In
FLAG 208 128 8
IOPIN 208 128 In
FLAG -144 208 _Q
FLAG -512 304 6
IOPIN -512 304 In
FLAG -352 288 R
FLAG -352 144 S
FLAG -512 128 2
IOPIN -512 128 In
FLAG -512 224 1
IOPIN -512 224 In
FLAG -144 128 3
IOPIN -144 128 Out
SYMBOL res -160 400 M90
WINDOW 0 14 4 VBottom 0
WINDOW 3 -13 124 VTop 0
SYMATTR InstName R3
SYMATTR Value 13k
SYMBOL res -336 400 M90
WINDOW 0 17 2 VBottom 0
WINDOW 3 -11 113 VTop 0
SYMATTR InstName R2
SYMATTR Value 13k
SYMBOL res -512 400 M90
WINDOW 0 17 19 VBottom 0
WINDOW 3 -10 116 VTop 0
SYMATTR InstName R1
SYMATTR Value 13k
SYMBOL nmos4 160 288 R0
WINDOW 3 56 72 Invisible 0
WINDOW 0 46 34 Left 0
SYMATTR Value Nchan555
SYMATTR InstName Mdis
SYMATTR Value2 l=2u w=1000u
SYMBOL res 208 144 R90
WINDOW 0 -2 58 VBottom 0
WINDOW 3 32 56 VTop 0
SYMATTR InstName Reset
SYMATTR Value 1g
SYMBOL SrFf -240 112 R0
SYMATTR InstName X3
SYMBOL pmos4 48 240 R180
WINDOW 0 -11 108 Left 0
WINDOW 3 56 72 Invisible 0
SYMATTR InstName Mrst
SYMATTR Value Pchan555
SYMATTR Value2 l=2u w=2000u
SYMBOL comp -400 224 R0
WINDOW 3 22 16 Center 0
SYMATTR InstName X1
SYMBOL comp -416 80 R0
WINDOW 3 24 20 Center 0
SYMATTR InstName X2
TEXT -344 32 Left 0 !.model nchan555 nmos cgbo=1p cgdo=1p cgso=1p\n.model pchan555 pmos cgbo=1p cgdo=1p cgso=1p
