Version 4
SHEET 1 880 680
WIRE 64 304 64 224
WIRE 64 400 64 320
WIRE 80 192 32 192
WIRE 80 224 64 224
WIRE 96 400 64 400
WIRE 96 432 48 432
WIRE 208 304 64 304
WIRE 208 416 192 416
WIRE 208 416 208 304
WIRE 224 208 176 208
WIRE 224 320 64 320
WIRE 224 320 224 208
WIRE 240 208 224 208
WIRE 240 416 208 416
FLAG 48 432 R
FLAG 240 208 _Q
FLAG 240 416 Q
FLAG 112 160 V+
FLAG 112 256 V-
FLAG 32 192 S
FLAG 128 464 v-
FLAG 128 368 V+
SYMBOL Nor 128 144 R0
WINDOW 3 9 30 Left 0
SYMATTR InstName X1
SYMBOL Nor 144 352 R0
WINDOW 3 3 29 Left 0
SYMATTR InstName X2
