Version 4
SHEET 1 1724 736
WIRE 560 64 304 64
WIRE 592 64 560 64
WIRE 720 64 672 64
WIRE 768 64 720 64
WIRE 880 64 768 64
WIRE 912 64 880 64
WIRE 1024 64 992 64
WIRE 720 80 720 64
WIRE 880 80 880 64
WIRE 1440 80 1408 80
WIRE 1520 80 1504 80
WIRE 144 96 128 96
WIRE 304 96 304 64
WIRE 304 96 224 96
WIRE 336 96 304 96
WIRE 432 96 416 96
WIRE 1120 112 1088 112
WIRE 1184 112 1120 112
WIRE 1248 112 1184 112
WIRE 1312 112 1248 112
WIRE 560 128 560 64
WIRE 656 128 560 128
WIRE 992 128 944 128
WIRE 1088 128 1088 112
WIRE 1408 128 1408 80
WIRE 1408 128 1392 128
WIRE 1440 128 1408 128
WIRE 1520 128 1520 80
WIRE 1520 128 1504 128
WIRE 1616 128 1520 128
WIRE 64 144 16 144
WIRE 528 144 496 144
WIRE 1616 144 1616 128
WIRE 736 176 720 176
WIRE 784 176 736 176
WIRE 880 176 848 176
WIRE 160 192 128 192
WIRE 256 192 160 192
WIRE 384 192 336 192
WIRE 432 192 384 192
WIRE 736 192 736 176
WIRE 1024 208 1024 64
WIRE 1040 208 1024 208
WIRE 1184 208 1184 112
WIRE 1520 208 1520 192
WIRE 1520 208 1392 208
WIRE 1552 208 1520 208
WIRE 16 224 16 144
WIRE 48 224 16 224
WIRE 384 224 384 192
WIRE 384 224 128 224
WIRE 1552 224 1552 208
WIRE 1616 224 1552 224
WIRE 160 240 160 192
WIRE 432 240 240 240
WIRE 560 240 560 128
WIRE 560 240 496 240
WIRE 768 240 768 64
WIRE 784 240 768 240
WIRE 864 240 848 240
WIRE 880 240 864 240
WIRE 992 240 992 128
WIRE 992 240 960 240
WIRE 240 256 240 240
WIRE 1520 256 1520 208
WIRE 384 272 384 224
WIRE 416 272 384 272
WIRE 528 272 528 144
WIRE 528 272 480 272
WIRE 608 272 528 272
WIRE 960 272 688 272
WIRE 1088 272 1088 224
WIRE 1088 272 960 272
WIRE 1248 272 1248 112
WIRE 1488 272 1392 272
WIRE 16 336 16 224
WIRE 48 336 16 336
WIRE 160 336 160 304
WIRE 160 336 128 336
WIRE 432 336 320 336
WIRE 528 336 528 272
WIRE 528 336 512 336
WIRE 320 352 320 336
WIRE 1184 352 1184 272
WIRE 1248 352 1248 336
WIRE 1248 352 1184 352
WIRE 16 368 16 336
WIRE 240 368 240 336
WIRE 240 368 16 368
WIRE 736 368 736 256
WIRE 736 368 688 368
WIRE 768 368 768 240
WIRE 768 368 736 368
WIRE 784 368 768 368
WIRE 864 368 864 240
WIRE 864 368 848 368
WIRE 1392 368 1392 352
WIRE 1440 368 1392 368
WIRE 1520 368 1520 320
WIRE 1520 368 1440 368
WIRE 16 384 16 368
WIRE 160 384 160 336
WIRE 384 384 384 272
WIRE 528 384 528 336
WIRE 560 384 560 240
WIRE 592 384 560 384
WIRE 736 384 736 368
WIRE 864 384 864 368
WIRE 1184 384 1184 352
WIRE 1312 384 1312 112
WIRE 1392 384 1392 368
WIRE 656 400 656 384
WIRE 928 400 656 400
WIRE 960 400 960 272
WIRE 960 400 928 400
WIRE 1120 400 1120 112
WIRE 1120 400 1104 400
WIRE 1248 400 1248 352
WIRE 1440 400 1440 368
WIRE 384 416 384 384
WIRE 416 416 384 416
WIRE 688 416 688 368
WIRE 688 416 496 416
WIRE 864 416 864 384
WIRE 864 416 768 416
WIRE 160 448 160 384
WIRE 176 448 160 448
WIRE 272 448 256 448
WIRE 288 448 272 448
WIRE 384 448 384 416
WIRE 384 448 352 448
WIRE 816 448 384 448
WIRE 960 448 960 400
WIRE 960 448 896 448
WIRE 1024 448 960 448
WIRE 1120 448 1120 400
WIRE 1120 448 1088 448
WIRE 320 480 320 416
WIRE 512 480 320 480
WIRE 560 480 512 480
WIRE 688 480 640 480
WIRE 768 480 768 416
WIRE 768 480 752 480
WIRE 928 480 768 480
WIRE 1088 480 1008 480
WIRE 1184 480 1184 464
WIRE 1184 480 1088 480
WIRE 1248 480 1248 464
WIRE 1248 480 1184 480
WIRE 1312 480 1312 464
WIRE 1312 480 1248 480
WIRE 512 512 512 480
WIRE 1488 512 1488 272
WIRE 1488 512 512 512
WIRE 272 544 272 448
WIRE 288 544 272 544
WIRE 1392 544 1392 464
WIRE 1392 544 352 544
WIRE 384 560 384 448
WIRE 432 560 384 560
WIRE 432 576 432 560
WIRE 384 592 384 560
WIRE 912 592 384 592
WIRE 1088 592 1088 480
WIRE 1088 592 992 592
FLAG 16 384 2
FLAG 160 384 1
FLAG 384 384 3
FLAG 528 384 7
FLAG 560 384 6
FLAG 736 384 5
FLAG 864 384 4
FLAG 928 400 8&9
FLAG 1104 400 11&12
FLAG 432 576 0
FLAG 1440 400 0
FLAG 736 176 x
FLAG 384 192 x
SYMBOL npn2 64 96 R0
WINDOW 0 -6 8 Left 0
WINDOW 3 19 48 Left 0
SYMATTR InstName Q1
SYMATTR Value BC546B
SYMBOL npn2 496 96 M0
WINDOW 0 -4 8 Left 0
WINDOW 3 19 48 Left 0
SYMATTR InstName Q2
SYMATTR Value BC546B
SYMBOL res 352 176 R90
WINDOW 0 16 113 VBottom 0
WINDOW 3 -12 7 VTop 0
SYMATTR InstName R1
SYMATTR Value 20k
SYMBOL res 240 80 R90
WINDOW 0 16 109 VBottom 0
WINDOW 3 -12 18 VTop 0
SYMATTR InstName R2
SYMATTR Value 1k5
SYMBOL res 432 80 R90
WINDOW 0 16 105 VBottom 0
WINDOW 3 -12 21 VTop 0
SYMATTR InstName R3
SYMATTR Value 100
SYMBOL zener 176 304 R180
WINDOW 0 38 36 Left 0
WINDOW 3 24 0 Invisible 0
SYMATTR InstName Dz6
SYMATTR Value BZX84C6V2L
SYMBOL res 144 320 R90
WINDOW 0 15 106 VBottom 0
WINDOW 3 -12 18 VTop 0
SYMATTR InstName R4
SYMATTR Value 2k
SYMBOL res 144 208 R90
WINDOW 0 16 100 VBottom 0
WINDOW 3 -12 17 VTop 0
SYMATTR InstName R5
SYMATTR Value 10k
SYMBOL pnp2 944 176 R180
WINDOW 0 71 77 Left 0
WINDOW 3 22 47 Left 0
SYMATTR InstName Q4
SYMATTR Value BC556A
SYMBOL pnp2 656 176 M180
WINDOW 0 62 75 Left 0
WINDOW 3 22 47 Left 0
SYMATTR InstName Q3
SYMATTR Value BC556A
SYMBOL res 688 48 R90
WINDOW 0 0 56 VBottom 0
WINDOW 3 32 56 VTop 0
SYMATTR InstName R6
SYMATTR Value 500
SYMBOL res 1008 48 R90
WINDOW 0 16 103 VBottom 0
WINDOW 3 -10 17 VTop 0
SYMATTR InstName R7
SYMATTR Value 20
SYMBOL diode 848 160 R90
WINDOW 0 -3 34 VBottom 0
WINDOW 3 -10 0 Invisible 0
SYMATTR InstName D1
SYMATTR Value 1N914
SYMBOL diode 848 224 R90
WINDOW 0 -3 34 VBottom 0
WINDOW 3 -10 0 Invisible 0
SYMATTR InstName D2
SYMATTR Value 1N914
SYMBOL res 976 224 R90
WINDOW 0 16 108 VBottom 0
WINDOW 3 -12 20 VTop 0
SYMATTR InstName R8
SYMATTR Value 100
SYMBOL cap 848 352 R90
WINDOW 0 16 55 VBottom 0
WINDOW 3 -12 8 VTop 0
SYMATTR InstName C1
SYMATTR Value 10n
SYMBOL res 704 256 R90
WINDOW 0 17 101 VBottom 0
WINDOW 3 -10 17 VTop 0
SYMATTR InstName R9
SYMATTR Value 270
SYMBOL nmos 1040 128 R0
WINDOW 0 7 -10 Left 0
WINDOW 3 -71 171 Left 0
SYMATTR InstName M1
SYMATTR Value STW11NM80
SYMBOL res 512 400 R90
WINDOW 0 16 106 VBottom 0
WINDOW 3 -10 17 VTop 0
SYMATTR InstName Re2
SYMATTR Value 100k
SYMBOL res 256 352 R180
WINDOW 0 24 81 Left 0
WINDOW 3 26 48 Left 0
SYMATTR InstName Re1
SYMATTR Value 47k
SYMBOL cap 496 224 R90
WINDOW 0 16 60 VBottom 0
WINDOW 3 -11 0 VTop 0
SYMATTR InstName Ce2
SYMATTR Value 3n3
SYMBOL res 912 432 R90
WINDOW 0 17 115 VBottom 0
WINDOW 3 -11 19 VTop 0
SYMATTR InstName Re3
SYMATTR Value 0.5
SYMBOL diode 656 368 R90
WINDOW 0 -3 34 VBottom 0
WINDOW 3 -10 0 Invisible 0
SYMATTR InstName De1
SYMATTR Value MURS120
SYMBOL cap 1088 432 R90
WINDOW 0 16 64 VBottom 0
WINDOW 3 -12 8 VTop 0
SYMATTR InstName Ce3
SYMATTR Value 1n
SYMBOL cap 480 256 R90
WINDOW 0 16 67 VBottom 0
WINDOW 3 -11 -13 VTop 0
SYMATTR InstName Ce1
SYMATTR Value 47n
SYMBOL res 528 320 R90
WINDOW 0 1 65 VBottom 0
WINDOW 3 32 56 VTop 0
SYMATTR InstName Re4
SYMATTR Value 1k3
SYMBOL zener 304 352 R0
WINDOW 0 19 3 Left 0
WINDOW 3 24 72 Invisible 0
SYMATTR InstName Dez7
SYMATTR Value 1N755
SYMBOL cap 752 464 R90
WINDOW 0 15 63 VBottom 0
WINDOW 3 -12 3 VTop 0
SYMATTR InstName Ce4
SYMATTR Value 12n
SYMBOL res 656 464 R90
WINDOW 0 16 106 VBottom 0
WINDOW 3 -10 17 VTop 0
SYMATTR InstName Re5
SYMATTR Value 100
SYMBOL res 1024 464 R90
WINDOW 0 16 106 VBottom 0
WINDOW 3 -10 17 VTop 0
SYMATTR InstName Re6
SYMATTR Value 1.5e6
SYMBOL res 272 432 R90
WINDOW 0 0 64 VBottom 0
WINDOW 3 32 66 VTop 0
SYMATTR InstName Re7
SYMATTR Value 100
SYMBOL polcap 352 432 R90
WINDOW 0 14 63 VBottom 0
WINDOW 3 -11 -14 VTop 0
SYMATTR InstName Ce5
SYMATTR Value 10µ
SYMATTR Description Capacitor
SYMATTR Type cap
SYMATTR SpiceLine V=63 Irms=170m Rser=1 Lser=0 mfg="Nichicon" pn="UPG1J100MPH" type="Al electrolytic"
SYMBOL diode 288 528 M90
WINDOW 0 -3 34 VBottom 0
WINDOW 3 -10 0 Invisible 0
SYMATTR InstName De2
SYMATTR Value UPSC600
SYMBOL diode 1440 144 R270
WINDOW 0 15 -3 VTop 0
WINDOW 3 -79 219 Invisible 0
SYMATTR InstName D3
SYMATTR Value MURS320
SYMBOL cap 1504 64 R90
WINDOW 0 15 63 VBottom 0
WINDOW 3 -12 3 VTop 0
SYMATTR InstName Ce6
SYMATTR Value 1n
SYMBOL polcap 1504 128 R0
WINDOW 3 24 64 Left 0
SYMATTR Value 22µ
SYMATTR InstName C2
SYMATTR Description Capacitor
SYMATTR Type cap
SYMATTR SpiceLine V=200 Irms=500m Rser=0.1 Lser=0
SYMBOL voltage 1008 592 R90
WINDOW 0 -5 108 VBottom 0
WINDOW 3 -29 -3 VTop 0
WINDOW 123 0 0 Left 0
WINDOW 39 10 -30 VTop 0
SYMATTR InstName V1
SYMATTR Value 160
SYMATTR SpiceLine Rser=10
SYMBOL res 1200 480 R180
WINDOW 0 24 81 Left 0
WINDOW 3 26 48 Left 0
SYMATTR InstName Re8
SYMATTR Value 30k
SYMBOL cap 1264 464 R180
WINDOW 0 24 48 Left 0
WINDOW 3 24 8 Left 0
SYMATTR InstName Ce7
SYMATTR Value 33n
SYMBOL cap 1264 336 R180
WINDOW 0 24 48 Left 0
WINDOW 3 24 8 Left 0
SYMATTR InstName Ce8
SYMATTR Value 1n
SYMBOL diode 1200 208 M0
WINDOW 3 24 72 Invisible 0
SYMATTR Value MR760
SYMATTR InstName De3
SYMBOL ind2 1296 368 R0
WINDOW 0 -22 22 Left 0
WINDOW 3 -42 101 Left 0
SYMATTR InstName L1
SYMATTR Value 750µ
SYMATTR SpiceLine Rser=1 Cpar=10p
SYMBOL ind2 1408 368 R180
WINDOW 0 -34 73 Left 0
WINDOW 3 -58 34 Left 0
SYMATTR InstName L3
SYMATTR Value 1µ5
SYMATTR SpiceLine Rser=10m Cpar=1p
SYMBOL ind2 1408 368 M0
WINDOW 0 -28 72 Left 0
WINDOW 3 -36 94 Left 0
SYMATTR InstName L2
SYMATTR Value 30µ
SYMATTR SpiceLine Rser=0.1 Cpar=2p
SYMBOL ind2 1408 224 R180
WINDOW 0 -34 73 Left 0
WINDOW 3 -61 38 Left 0
SYMATTR InstName L4
SYMATTR Value 350µ
SYMATTR SpiceLine Rser=1 Cpar=5p
SYMBOL res 1600 128 R0
SYMATTR InstName RL
SYMATTR Value 500
SYMBOL X_Asy\\Xzener_DiodesInc 720 192 R0
WINDOW 0 -67 27 Left 0
WINDOW 38 -78 -1 Invisible 0
SYMATTR InstName Dz24
SYMATTR SpiceModel SMAZ24
SYMBOL cap 1504 256 R0
SYMATTR InstName Ca
SYMATTR Value 1n
SYMATTR SpiceLine Rpar=1e6
TEXT 16 576 Left 0 !.tran 0 5m 0
TEXT 1352 264 VRight 0 !K1 L1 L2 L3 L4 .95
TEXT 1032 64 Left 0 ;L1=750u L2=10u L3=250n L4=450u\nl1=150u l2=30u l3=1u5 L4=350u
TEXT 16 504 Left 0 !.option noopiter
