Version 4
SHEET 1 1028 856
WIRE 352 -64 -272 -64
WIRE 608 -64 496 -64
WIRE -272 -32 -272 -64
WIRE 352 0 -32 0
WIRE 608 0 496 0
WIRE -32 32 -32 0
WIRE -272 80 -272 48
WIRE 800 128 384 128
WIRE -32 144 -32 112
WIRE 384 160 384 128
WIRE 384 272 384 240
WIRE 800 320 384 320
WIRE 384 352 384 320
WIRE 384 464 384 432
WIRE 800 512 384 512
WIRE 384 544 384 512
WIRE 384 656 384 624
FLAG 608 -64 x
FLAG 608 0 y
FLAG 384 272 0
FLAG 800 128 u
IOPIN 800 128 Out
FLAG -272 80 0
FLAG 384 464 0
FLAG 800 320 v
IOPIN 800 320 Out
FLAG 384 656 0
FLAG 800 512 w
IOPIN 800 512 Out
FLAG -32 144 0
SYMBOL SpecialFunctions\\modulate2 352 -64 R0
WINDOW 39 29 122 Left 0
SYMATTR SpiceLine space=0 mark={f1}
SYMATTR InstName A4
SYMBOL voltage -272 -48 R0
WINDOW 123 0 0 Left 0
WINDOW 39 0 0 Left 0
SYMATTR InstName V1
SYMATTR Value PWL(0 0 1 1)
SYMBOL bv 384 144 R0
SYMATTR InstName B1
SYMATTR Value V=V(x)
SYMBOL bv 384 336 R0
SYMATTR InstName B2
SYMATTR Value V=-0.5*V(x)+sqrt(3)/2*V(y)
SYMBOL bv 384 528 R0
SYMATTR InstName B3
SYMATTR Value V=-0.5*V(x)-sqrt(3)/2*V(y)
SYMBOL voltage -32 16 R0
WINDOW 123 0 0 Left 0
WINDOW 39 0 0 Left 0
SYMATTR InstName V2
SYMATTR Value PWL(0 0 1 100)
TEXT 368 -408 Left 0 ;3-Phase-Generator Startup Signals\nusing the "modulate2",\nthe sine-cosine generator\n \nSignals with any phase can be generated.\nExample: +120 degree in advance relative to SIN-out\nV= cos(120)*V(x) + sin(120)*V(y)\nV = -0.5 + sqrt(3)/2*V(y)
TEXT 512 -32 Left 0 ;modulate2
TEXT 64 -392 Left 0 !.param f1=60
TEXT 64 -304 Left 0 !.tran 1s
TEXT 656 288 Left 0 ;+120
TEXT 656 488 Left 0 ;+240
TEXT 680 104 Left 0 ;0
TEXT 64 -336 Left 0 !.options plotwinsize=0
RECTANGLE Normal 720 688 288 -160
