Version 4
SHEET 1 1292 856
WIRE 1040 -144 992 -144
WIRE 1232 -144 1200 -144
WIRE 1040 -112 1040 -144
WIRE 1232 -112 1232 -144
WIRE 352 -64 256 -64
WIRE 608 -64 496 -64
WIRE 352 0 256 0
WIRE 608 0 496 0
WIRE 1040 0 1040 -32
WIRE 1232 0 1232 -32
WIRE 352 32 320 32
WIRE 320 96 320 32
WIRE 800 128 384 128
WIRE 384 160 384 128
WIRE 96 192 80 192
WIRE 192 192 176 192
WIRE 80 256 80 192
WIRE 192 272 192 192
WIRE 384 272 384 240
WIRE 800 320 384 320
WIRE 384 352 384 320
WIRE 80 368 80 336
WIRE 384 464 384 432
WIRE 800 512 384 512
WIRE 384 544 384 512
WIRE 384 656 384 624
FLAG 608 -64 x
IOPIN 608 -64 Out
FLAG 608 0 y
IOPIN 608 0 Out
FLAG 800 128 u
IOPIN 800 128 Out
FLAG 800 320 v
IOPIN 800 320 Out
FLAG 800 512 w
IOPIN 800 512 Out
FLAG 256 -64 Fctrl
IOPIN 256 -64 In
FLAG 256 0 Actrl
IOPIN 256 0 In
FLAG 992 -144 Fctrl
FLAG 1200 -144 Actrl
FLAG 320 96 ref
FLAG 1040 0 ref
FLAG 1232 0 ref
FLAG 80 368 0
FLAG 192 272 ref
FLAG 384 272 0
FLAG 384 464 0
FLAG 384 656 0
SYMBOL SpecialFunctions\\modulate2 352 -64 R0
WINDOW 39 29 122 Left 0
WINDOW 40 29 150 Left 0
SYMATTR SpiceLine space=0 mark={f1}
SYMATTR SpiceLine2 vhigh=100 vlow=-100
SYMATTR InstName A4
SYMBOL voltage 1232 -128 R0
SYMATTR InstName V1
SYMATTR Value 1
SYMBOL bv 384 144 R0
SYMATTR InstName B1
SYMATTR Value V=V(x,ref)
SYMBOL bv 384 336 R0
SYMATTR InstName B2
SYMATTR Value V=-0.5*V(x,ref)+sqrt(3)/2*V(y,ref)
SYMBOL bv 384 528 R0
SYMATTR InstName B3
SYMATTR Value V=-0.5*V(x,ref)-sqrt(3)/2*V(y,ref)
SYMBOL voltage 1040 -128 R0
WINDOW 123 0 0 Left 0
WINDOW 39 0 0 Left 0
SYMATTR InstName V2
SYMATTR Value 1
SYMBOL res 192 176 R90
WINDOW 0 0 56 VBottom 0
WINDOW 3 32 56 VTop 0
SYMATTR InstName R1
SYMATTR Value 1G
SYMBOL voltage 80 240 R0
SYMATTR InstName V3
SYMATTR Value 100
TEXT 368 -408 Left 0 ;3-Phase-Generator\nThe new method with the "modulate2",\nthe sine-cosine generator\n \nSignals with any phase can be generated.\nExample: +120 degree in advance relative to SIN-out\nV= cos(120)*V(x) + sin(120)*V(y)\nV = -0.5 + sqrt(3)/2*V(y)
TEXT 512 -32 Left 0 ;modulate2
TEXT 64 -392 Left 0 !.param f1=50
TEXT 64 -304 Left 0 !.tran 0 100m 0 10u
TEXT 656 288 Left 0 ;+120
TEXT 656 488 Left 0 ;+240
TEXT 680 104 Left 0 ;0
TEXT 64 -336 Left 0 !.options plotwinsize=0
TEXT 24 32 Left 0 ;1V --> 100V amplitude
TEXT 24 -96 Left 0 ;1V --> frequency=mark
TEXT 88 -504 Left 0 ;The Modulator device has an offset input.
TEXT 672 -40 Left 0 ;Plot V(x.ref) V(y,ref)
RECTANGLE Normal 912 704 288 -160
