Version 4
SHEET 1 1032 704
WIRE 544 224 432 224
WIRE 752 224 624 224
WIRE 432 304 432 224
WIRE 464 304 432 304
WIRE 752 304 752 224
WIRE 752 304 720 304
WIRE 464 368 320 368
WIRE 912 368 720 368
WIRE 320 384 320 368
WIRE 80 432 -224 432
WIRE 464 432 160 432
WIRE 768 432 720 432
WIRE -224 448 -224 432
WIRE 912 448 912 368
WIRE 464 496 320 496
WIRE 800 496 720 496
WIRE 320 528 320 496
WIRE -224 544 -224 528
WIRE 320 624 320 608
WIRE 800 624 800 496
WIRE 912 624 912 528
FLAG 912 624 0
FLAG 320 624 0
FLAG -224 544 0
FLAG 768 432 out
IOPIN 768 432 Out
FLAG 800 624 0
FLAG 320 384 0
SYMBOL VOLTAGE -224 432 R0
WINDOW 39 0 0 Left 0
WINDOW 123 46 57 Left 0
WINDOW 0 -13 53 Left 0
WINDOW 3 24 99 Left 0
SYMATTR Value2 AC 1
SYMATTR InstName V1
SYMATTR Value PULSE(-0.05 0.05 10u 1n 1n 50u 100u)
SYMBOL voltage 912 432 R0
WINDOW 0 -13 57 Left 0
WINDOW 3 -47 1 Left 0
SYMATTR InstName V2
SYMATTR Value 15V
SYMBOL voltage 320 512 R0
WINDOW 0 -13 56 Left 0
SYMATTR InstName V3
SYMATTR Value -15V
SYMBOL RES 528 240 R270
WINDOW 0 16 0 VTop 0
WINDOW 3 43 114 VBottom 0
SYMATTR InstName Rg
SYMATTR Value 500
SYMBOL res 64 448 R270
WINDOW 0 32 56 VTop 0
WINDOW 3 0 56 VBottom 0
SYMATTR InstName R3
SYMATTR Value 1k
SYMBOL INA121E 592 400 R0
WINDOW 0 1 -112 Center 0
SYMATTR InstName U1
TEXT -232 296 Left 0 !.tran 200u
TEXT 472 176 Left 0 ;V=  1 + 50kOhm / Rg
TEXT -232 320 Left 0 !.op
TEXT -232 232 Left 0 ;Use the following "hack" if only a .OP analysis is activated.\nControl Panel->Hacks  Add GMIN across current sources
