Version 4
SHEET 1 1020 704
WIRE 544 240 432 240
WIRE 752 240 624 240
WIRE 432 304 432 240
WIRE 464 304 432 304
WIRE 752 304 752 240
WIRE 752 304 720 304
WIRE 464 368 320 368
WIRE 896 368 720 368
WIRE 320 384 320 368
WIRE 192 432 -64 432
WIRE 464 432 272 432
WIRE 800 432 720 432
WIRE -64 448 -64 432
WIRE 896 448 896 368
WIRE 464 496 384 496
WIRE 800 496 720 496
WIRE 384 512 384 496
WIRE 800 544 800 496
WIRE 896 544 896 528
WIRE -64 592 -64 528
WIRE 384 608 384 592
FLAG 896 544 0
FLAG 384 608 0
FLAG -64 592 0
FLAG 800 432 out
FLAG 800 544 0
FLAG 320 384 0
SYMBOL VOLTAGE -64 432 R0
WINDOW 39 0 0 Left 0
WINDOW 123 46 54 Left 0
WINDOW 0 -12 57 Left 0
WINDOW 3 398 105 Right 0
SYMATTR Value2 AC 1
SYMATTR InstName V1
SYMATTR Value PULSE(-0.05 0.05 10u 1n 1n 50u 100u)
SYMBOL voltage 896 432 R0
SYMATTR InstName V2
SYMATTR Value 15V
SYMBOL voltage 384 496 R0
WINDOW 0 -15 61 Left 0
WINDOW 3 21 19 Left 0
SYMATTR InstName V3
SYMATTR Value -15V
SYMBOL RES 528 256 R270
WINDOW 0 15 -4 VTop 0
WINDOW 3 43 111 VBottom 0
SYMATTR InstName Rg
SYMATTR Value 500
SYMBOL res 176 448 R270
WINDOW 0 18 5 VTop 0
WINDOW 3 44 114 VBottom 0
SYMATTR InstName R3
SYMATTR Value 1k
SYMBOL INA121 592 400 R0
WINDOW 0 1 -115 Center 0
SYMATTR InstName U1
TEXT -64 208 Left 0 !.tran 200u
TEXT 480 200 Left 0 ;V=  1 + 50kOhm / Rg
TEXT -64 232 Left 0 !.op
TEXT -64 264 Left 0 ;Use the following "hack"\nif only a .OP analysis is activated.\nControl Panel->Hacks  Add\nGMIN across current sources.
