Version 4
SHEET 1 1128 724
WIRE 1008 -336 -608 -336
WIRE 16 96 -352 96
WIRE 48 96 16 96
WIRE 208 96 144 96
WIRE 320 96 288 96
WIRE 480 96 416 96
WIRE 752 96 480 96
WIRE -112 160 -144 160
WIRE 48 160 -112 160
WIRE 176 160 144 160
WIRE 448 160 416 160
WIRE 592 192 560 192
WIRE 832 192 720 192
WIRE -16 208 -144 208
WIRE 48 208 -16 208
WIRE 208 208 208 96
WIRE 208 208 144 208
WIRE 320 224 320 160
WIRE 336 224 320 224
WIRE -240 272 -272 272
WIRE 16 272 16 96
WIRE 48 272 16 272
WIRE 176 272 176 160
WIRE 176 272 144 272
WIRE -112 304 -112 160
WIRE 592 304 560 304
WIRE 752 304 720 304
WIRE -272 320 -272 272
WIRE -160 320 -272 320
WIRE 176 320 176 272
WIRE 176 320 128 320
WIRE 592 336 560 336
WIRE -352 352 -352 96
WIRE -272 352 -272 320
WIRE 208 352 208 208
WIRE 288 352 288 96
WIRE 480 352 480 96
WIRE 752 352 752 304
WIRE 832 352 832 192
WIRE -16 368 -16 208
WIRE -352 464 -352 432
WIRE -272 464 -272 432
WIRE -272 464 -352 464
WIRE -160 464 -160 368
WIRE -160 464 -272 464
WIRE -112 464 -112 384
WIRE -112 464 -160 464
WIRE -16 464 -16 432
WIRE -16 464 -112 464
WIRE 208 464 208 432
WIRE 208 464 -16 464
WIRE 288 464 288 432
WIRE 288 464 208 464
WIRE 448 464 448 160
WIRE 448 464 288 464
WIRE 480 464 480 432
WIRE 480 464 448 464
WIRE 752 464 752 432
WIRE 752 464 480 464
WIRE 832 464 832 432
WIRE 832 464 752 464
WIRE -352 496 -352 464
WIRE -608 720 -608 -336
WIRE 1008 720 1008 -336
WIRE 1008 720 -608 720
FLAG -352 496 0
FLAG 752 96 VSEC
IOPIN 752 96 Out
FLAG -144 160 VPRI
IOPIN -144 160 Out
FLAG -144 208 VCLMP
IOPIN -144 208 Out
FLAG -240 272 VDRV
IOPIN -240 272 Out
FLAG 128 320 DBp
IOPIN 128 320 In
FLAG 336 224 DBs
IOPIN 336 224 In
FLAG 560 304 DBp
IOPIN 560 304 Out
FLAG 560 192 DBs
IOPIN 560 192 Out
FLAG 560 336 BP
IOPIN 560 336 Out
SYMBOL core 672 192 M0
SYMATTR InstName CORES
SYMATTR SpiceLine UO=12.57E-7 UE=1500 AE=58E-6 LE=57E-3 BS=300E-3 LG=0
SYMBOL winding 80 128 R0
SYMATTR InstName PRIMARY
SYMATTR SpiceLine WA=17E-6 MLT=50E-3 WF=0.7 N=14 F=0
SYMBOL winding 80 240 R0
SYMATTR InstName CLAMP
SYMATTR SpiceLine WA=3.4E-6 MLT=50E-3 WF=0.7 N=14 F=0
SYMBOL winding 384 128 M0
SYMATTR InstName SECONDARY
SYMATTR SpiceLine WA=20.5E-6 MLT=50E-3 WF=0.7 N=3 F=0
SYMBOL res 464 336 R0
WINDOW 0 34 51 Left 0
SYMATTR InstName RB
SYMATTR Value 2R5
SYMBOL sw -112 400 M180
WINDOW 0 35 71 Left 0
WINDOW 3 34 46 Left 0
SYMATTR InstName M1
SYMATTR Value MSW
SYMBOL voltage -272 336 R0
WINDOW 0 -54 149 Left 0
WINDOW 3 -56 174 Left 0
WINDOW 123 0 0 Left 0
WINDOW 39 0 0 Left 0
SYMATTR InstName VDRV
SYMATTR Value PULSE(0 15 0 10n 10n 4u 10u)
SYMBOL diode 0 432 R180
WINDOW 0 -49 42 Left 0
WINDOW 3 -42 20 Left 0
SYMATTR InstName DCL
SYMATTR Value DID
SYMBOL voltage -352 336 R0
WINDOW 0 8 -35 Left 0
WINDOW 3 10 -9 Left 0
WINDOW 123 0 0 Left 0
WINDOW 39 0 0 Left 0
SYMATTR InstName VBUS
SYMATTR Value 48V
SYMBOL voltage 208 336 R0
WINDOW 0 -70 46 Left 0
WINDOW 3 -68 71 Left 0
SYMATTR InstName VP
SYMATTR Value 0
SYMBOL core 672 304 M0
SYMATTR InstName COREP
SYMATTR SpiceLine UO=12.57E-7 UE=1500 AE=58E-6 LE=57E-3 BS=300E-3 LG=0
SYMBOL voltage 288 336 R0
WINDOW 0 39 45 Left 0
WINDOW 3 39 67 Left 0
SYMATTR InstName VS
SYMATTR Value 0
SYMBOL bi 752 352 R0
WINDOW 0 -463 -336 Left 0
WINDOW 3 -422 -337 Left 0
SYMATTR InstName BP
SYMATTR Value I=-(I(VP)+0.99*I(VS))
SYMBOL bi 832 352 R0
WINDOW 0 -544 -310 Left 0
WINDOW 3 -501 -310 Left 0
SYMATTR InstName BS
SYMATTR Value I=-(I(VS)+0.99*I(VP))
TEXT 80 128 Left 0 ;PRI
TEXT 72 240 Left 0 ;CLP
TEXT 344 128 Left 0 ;SEC
TEXT -352 16 Left 0 !.MODEL MSW SW(RON=10m ROFF=1E6 VT=5)
TEXT -352 40 Left 0 !.MODEL DID D(RON=10m ROFF=1E6)
TEXT -352 64 Left 0 !.tran 0 100u 70u 100n uic
TEXT 712 336 Left 0 ;BP
TEXT 792 336 Left 0 ;BS
TEXT 608 272 Left 0 ;COREP
TEXT 608 160 Left 0 ;CORES
