Version 4
SHEET 1 1088 680
WIRE -176 128 -208 128
WIRE -112 128 -176 128
WIRE 16 128 -16 128
WIRE 160 128 144 128
WIRE -176 160 -176 128
WIRE 176 160 144 160
WIRE -112 192 -128 192
WIRE 160 192 160 128
WIRE 160 192 -16 192
WIRE -176 272 -176 240
WIRE -128 272 -128 192
WIRE -128 272 -176 272
WIRE -176 304 -176 272
FLAG 176 160 BF
IOPIN 176 160 Out
FLAG -176 304 0
FLAG -208 128 VL
IOPIN -208 128 Out
SYMBOL core 64 128 R0
WINDOW 0 -350 -124 Left 0
WINDOW 39 -351 -99 Left 0
SYMATTR InstName Core
SYMATTR SpiceLine UO=12.6E-7 UE=1500 AE=58E-6 LE=57E-3 BS=0.3 LG=700E-6
SYMBOL winding -80 160 R0
WINDOW 0 -206 -107 Left 0
WINDOW 39 -111 -107 Left 0
SYMATTR InstName Winding
SYMATTR SpiceLine WA=41E-6 MLT=50E-3 WF=0.7 N=14 F=0
SYMBOL current -176 160 R0
WINDOW 0 -111 -81 Left 0
WINDOW 3 -53 -81 Left 0
WINDOW 123 0 0 Left 0
WINDOW 39 0 0 Left 0
SYMATTR InstName IDRV
SYMATTR Value PULSE(0 100 0 100 0 100)
TEXT 56 80 Left 0 !.TRAN 0 100 0 uic
TEXT -112 224 Left 0 ;Winding
TEXT 56 224 Left 0 ;Core
TEXT -272 200 Left 0 ;IDRV
