Version 4
SHEET 1 880 680
WIRE 0 176 -32 176
WIRE 32 176 0 176
WIRE -32 192 -32 176
WIRE 112 192 112 176
WIRE 112 192 96 192
WIRE 128 192 112 192
WIRE 224 192 208 192
WIRE 272 192 224 192
WIRE 32 208 16 208
WIRE 224 208 224 192
WIRE 368 208 368 192
WIRE 368 208 336 208
WIRE 272 224 256 224
WIRE -32 272 -32 256
WIRE 16 272 16 208
WIRE 16 272 -32 272
WIRE 224 272 224 256
WIRE 224 272 16 272
WIRE 256 272 256 224
WIRE 256 272 224 272
WIRE 432 272 432 256
WIRE 432 272 256 272
WIRE -32 288 -32 272
WIRE 432 304 432 272
WIRE 256 320 192 320
WIRE 272 320 256 320
WIRE 368 320 368 208
WIRE 368 320 352 320
WIRE 0 336 0 176
WIRE 16 336 0 336
WIRE 112 336 96 336
WIRE 128 336 112 336
WIRE 256 336 256 320
WIRE 112 352 112 336
WIRE 208 352 192 352
WIRE 208 416 208 352
WIRE 224 416 224 272
WIRE 224 416 208 416
WIRE 256 416 256 400
WIRE 256 416 224 416
FLAG -32 288 0
FLAG 64 160 V+
FLAG 64 224 V-
FLAG 304 176 V+
FLAG 304 240 V-
FLAG 160 304 V+
FLAG 160 368 V-
FLAG 432 176 V+
FLAG 432 384 V-
FLAG 112 176 F1
IOPIN 112 176 Out
FLAG 368 192 F2
IOPIN 368 192 Out
FLAG 112 352 F3
IOPIN 112 352 Out
SYMBOL Robertugo\\OPAMP5 64 128 R0
WINDOW 0 -27 64 Left 0
SYMATTR InstName U1a
SYMATTR SpiceModel Level3b
SYMBOL cap -48 192 R0
WINDOW 0 -17 12 Left 0
WINDOW 3 -26 53 Left 0
SYMATTR InstName C1
SYMATTR Value 10n
SYMBOL res 112 320 R90
WINDOW 0 15 96 VBottom 0
WINDOW 3 -13 11 VTop 0
SYMATTR InstName R1
SYMATTR Value 1e6
SYMATTR SpiceLine tol=1 pwr=0.1
SYMBOL Robertugo\\OPAMP5 304 144 R0
WINDOW 0 -27 64 Left 0
WINDOW 38 -100 -1 Left 0
SYMATTR InstName U1b
SYMATTR SpiceModel Level3b
SYMBOL cap 208 208 R0
WINDOW 0 -17 12 Left 0
WINDOW 3 -26 53 Left 0
SYMATTR InstName C2
SYMATTR Value 10n
SYMBOL res 224 176 R90
WINDOW 0 2 63 VBottom 0
WINDOW 3 -26 22 VTop 0
SYMATTR InstName R2
SYMATTR Value 1e6
SYMBOL Robertugo\\OPAMP5 160 272 M0
WINDOW 0 -27 64 Left 0
WINDOW 38 14 23 Left 0
SYMATTR InstName U1c
SYMATTR SpiceModel Level3b
SYMBOL cap 272 336 M0
WINDOW 0 -17 12 Left 0
WINDOW 3 -26 53 Left 0
SYMATTR InstName C3
SYMATTR Value 10n
SYMBOL res 256 304 M90
WINDOW 0 15 102 VBottom 0
WINDOW 3 -13 11 VTop 0
SYMATTR InstName R3
SYMATTR Value 1e6
SYMATTR SpiceLine tol=1 pwr=0.1
SYMBOL voltage 432 288 R0
WINDOW 0 -48 97 Left 0
WINDOW 3 -6 60 Left 0
WINDOW 123 0 0 Left 0
SYMATTR InstName V1
SYMATTR Value 5
SYMATTR SpiceLine Rser=.1 Cpar=100n
SYMBOL voltage 432 160 R0
WINDOW 0 -50 97 Left 0
WINDOW 3 -6 60 Left 0
WINDOW 123 0 0 Left 0
SYMATTR InstName V2
SYMATTR Value 5
SYMATTR SpiceLine Rser=.1 Cpar=100n
TEXT -40 104 Left 0 !.tran 0 110m 10m startup
