Version 4
SHEET 1 1188 680
WIRE 608 176 544 176
WIRE 208 224 160 224
WIRE 384 224 256 224
WIRE 496 224 384 224
WIRE 656 224 496 224
WIRE 1072 224 1008 224
WIRE 256 256 256 224
WIRE 1008 256 1008 224
WIRE 208 272 208 224
WIRE 384 272 384 224
WIRE 960 272 832 272
WIRE 496 288 496 224
WIRE 608 288 608 176
WIRE 656 288 608 288
WIRE 208 400 208 320
WIRE 256 400 256 336
WIRE 384 400 384 352
WIRE 496 400 496 352
WIRE 960 400 960 320
WIRE 1008 400 1008 336
FLAG 256 400 0
FLAG 208 400 0
FLAG 160 224 IN
IOPIN 160 224 In
FLAG 1008 400 0
FLAG 960 400 0
FLAG 1072 224 OUT
IOPIN 1072 224 Out
FLAG 544 176 z_phase1
FLAG 384 400 0
FLAG 496 400 0
SYMBOL e 1008 240 R0
SYMATTR InstName E2
SYMATTR Value 1
SYMBOL SpecialFunctions\\sample 736 256 R0
SYMATTR InstName A1
SYMATTR Value2 td={TS*1e-4}
SYMATTR SpiceLine Vhigh=1e6 Vlow=-1e6
SYMBOL g 256 240 R0
SYMATTR InstName G1
SYMATTR Value 1
SYMBOL res 368 256 R0
SYMATTR InstName R1
SYMATTR Value 1
SYMBOL cap 480 288 R0
SYMATTR InstName C1
SYMATTR Value {Cz}
TEXT 344 32 Left 0 !.PARAM Cz={TS*1e-5}
