*$
*//-----------------------------------------------------------------------//
*//   Part No.    : APSC100E681MJB5S
*//   Date        : 2020/12/24
*//   Temperature : 20deg.C
*//   Model       : RC-ladder 7 Elements Model
*//   Copyright (C) 2020 Nippon Chemi-Con Corporation.
*//   All Rights Reserved.
*//-----------------------------------------------------------------------//

.SUBCKT APSC100ELL681MJB5S_20deg-C 1 2

C1 4 2 3.97e-04
C2 5 2 1.65e-04
C3 6 2 2.79e-05
R1 3 4 5.07e-03
R2 4 5 2.06e-02
R3 5 6 5.34e-01
L1 1 3 4.00e-09

.ENDS
