*$
*//-----------------------------------------------------------------------//
*//   Part No.    : APSC4R0E681MHB5S
*//   Date        : 2020/12/24
*//   Temperature : 20deg.C
*//   Model       : RC-ladder 7 Elements Model
*//   Copyright (C) 2020 Nippon Chemi-Con Corporation.
*//   All Rights Reserved.
*//-----------------------------------------------------------------------//

.SUBCKT APSC4R0ELL681MHB5S_20deg-C 1 2

C1 4 2 5.11e-04
C2 5 2 1.23e-04
C3 6 2 3.09e-05
R1 3 4 4.14e-03
R2 4 5 4.86e-02
R3 5 6 1.60e+00
L1 1 3 3.30e-09

.ENDS
