*$
*//-----------------------------------------------------------------------//
*//   Part No.    : APSC160E471MJB5S
*//   Date        : 2020/12/24
*//   Temperature : 20deg.C
*//   Model       : RC-ladder 7 Elements Model
*//   Copyright (C) 2020 Nippon Chemi-Con Corporation.
*//   All Rights Reserved.
*//-----------------------------------------------------------------------//

.SUBCKT APSC160ELL471MJB5S_20deg-C 1 2

C1 4 2 3.04e-04
C2 5 2 1.30e-04
C3 6 2 1.88e-05
R1 3 4 5.75e-03
R2 4 5 2.46e-02
R3 5 6 1.10e+00
L1 1 3 4.20e-09

.ENDS
