*$
*//-----------------------------------------------------------------------//
*//   Part No.    : APSC4R0E561MH08S
*//   Date        : 2020/12/24
*//   Temperature : 20deg.C
*//   Model       : RC-ladder 7 Elements Model
*//   Copyright (C) 2020 Nippon Chemi-Con Corporation.
*//   All Rights Reserved.
*//-----------------------------------------------------------------------//

.SUBCKT APSC4R0ELL561MH08S_20deg-C 1 2

C1 4 2 4.38e-04
C2 5 2 6.42e-05
C3 6 2 1.46e-05
R1 3 4 5.83e-03
R2 4 5 1.09e-01
R3 5 6 3.41e+00
L1 1 3 2.60e-09

.ENDS
