*$
*//-----------------------------------------------------------------------//
*//   Part No.    : APSC2R5E561MH08S
*//   Date        : 2020/12/24
*//   Temperature : 20deg.C
*//   Model       : RC-ladder 7 Elements Model
*//   Copyright (C) 2020 Nippon Chemi-Con Corporation.
*//   All Rights Reserved.
*//-----------------------------------------------------------------------//

.SUBCKT APSC2R5ELL561MH08S_20deg-C 1 2

C1 4 2 4.88e-04
C2 5 2 7.75e-05
C3 6 2 2.39e-05
R1 3 4 4.61e-03
R2 4 5 3.87e-02
R3 5 6 6.48e-01
L1 1 3 2.60e-09

.ENDS
