*$
*//-----------------------------------------------------------------------//
*//   Part No.    : APSC2R5E272MJB5S
*//   Date        : 2020/12/24
*//   Temperature : 20deg.C
*//   Model       : RC-ladder 7 Elements Model
*//   Copyright (C) 2020 Nippon Chemi-Con Corporation.
*//   All Rights Reserved.
*//-----------------------------------------------------------------------//

.SUBCKT APSC2R5ELL272MJB5S_20deg-C 1 2

C1 4 2 1.64e-03
C2 5 2 9.41e-04
C3 6 2 1.08e-04
R1 3 4 4.51e-03
R2 4 5 1.03e-02
R3 5 6 8.30e-01
L1 1 3 4.00e-09

.ENDS
