*$
*//-----------------------------------------------------------------------//
*//   Part No.    : APSC4R0E102MJB5S
*//   Date        : 2020/12/24
*//   Temperature : 20deg.C
*//   Model       : RC-ladder 7 Elements Model
*//   Copyright (C) 2020 Nippon Chemi-Con Corporation.
*//   All Rights Reserved.
*//-----------------------------------------------------------------------//

.SUBCKT APSC4R0ELL102MJB5S_20deg-C 1 2

C1 4 2 4.96e-04
C2 5 2 4.36e-04
C3 6 2 4.09e-05
R1 3 4 3.30e-03
R2 4 5 1.03e-02
R3 5 6 9.90e-01
L1 1 3 4.00e-09

.ENDS
