*$
*//-----------------------------------------------------------------------//
*//   Part No.    : APSC6R3E152MJB5S
*//   Date        : 2020/12/24
*//   Temperature : 20deg.C
*//   Model       : RC-ladder 7 Elements Model
*//   Copyright (C) 2020 Nippon Chemi-Con Corporation.
*//   All Rights Reserved.
*//-----------------------------------------------------------------------//

.SUBCKT APSC6R3ELL152MJB5S_20deg-C 1 2

C1 4 2 9.75e-04
C2 5 2 3.47e-04
C3 6 2 4.72e-05
R1 3 4 4.47e-03
R2 4 5 1.81e-02
R3 5 6 1.42e+00
L1 1 3 4.00e-09

.ENDS
