*$
*//-----------------------------------------------------------------------//
*//   Part No.    : APSC6R3E471MH08S
*//   Date        : 2020/12/24
*//   Temperature : 20deg.C
*//   Model       : RC-ladder 7 Elements Model
*//   Copyright (C) 2020 Nippon Chemi-Con Corporation.
*//   All Rights Reserved.
*//-----------------------------------------------------------------------//

.SUBCKT APSC6R3ELL471MH08S_20deg-C 1 2

C1 4 2 3.89e-04
C2 5 2 6.22e-05
C3 6 2 2.07e-05
R1 3 4 5.12e-03
R2 4 5 4.09e-02
R3 5 6 1.26e+00
L1 1 3 2.60e-09

.ENDS
