*$
*//-----------------------------------------------------------------------//
*//   Part No.    : APSC100E391MHB5S
*//   Date        : 2020/12/24
*//   Temperature : 20deg.C
*//   Model       : RC-ladder 7 Elements Model
*//   Copyright (C) 2020 Nippon Chemi-Con Corporation.
*//   All Rights Reserved.
*//-----------------------------------------------------------------------//

.SUBCKT APSC100ELL391MHB5S_20deg-C 1 2

C1 4 2 2.73e-04
C2 5 2 7.17e-05
C3 6 2 1.45e-05
R1 3 4 4.75e-03
R2 4 5 3.61e-02
R3 5 6 1.40e+00
L1 1 3 3.30e-09

.ENDS
