*$
*//-----------------------------------------------------------------------//
*//   Part No.    : APSC2R5E821MH08S
*//   Date        : 2020/12/24
*//   Temperature : 20deg.C
*//   Model       : RC-ladder 7 Elements Model
*//   Copyright (C) 2020 Nippon Chemi-Con Corporation.
*//   All Rights Reserved.
*//-----------------------------------------------------------------------//

.SUBCKT APSC2R5ELL821MH08S_20deg-C 1 2

C1 4 2 6.12e-04
C2 5 2 1.08e-04
C3 6 2 2.72e-05
R1 3 4 4.81e-03
R2 4 5 6.43e-02
R3 5 6 1.69e+00
L1 1 3 2.60e-09

.ENDS
