*$
*//-----------------------------------------------------------------------//
*//   Part No.    : APSC2R5E102MHB5S
*//   Date        : 2020/12/24
*//   Temperature : 20deg.C
*//   Model       : RC-ladder 7 Elements Model
*//   Copyright (C) 2020 Nippon Chemi-Con Corporation.
*//   All Rights Reserved.
*//-----------------------------------------------------------------------//

.SUBCKT APSC2R5ELL102MHB5S_20deg-C 1 2

C1 4 2 7.23e-04
C2 5 2 2.23e-04
C3 6 2 7.45e-05
R1 3 4 3.57e-03
R2 4 5 1.94e-02
R3 5 6 4.49e-01
L1 1 3 3.30e-09

.ENDS
