*$
*//-----------------------------------------------------------------------//
*//   Part No.    : APSC2R5E821MH08J
*//   Date        : 2020/12/24
*//   Temperature : 20deg.C
*//   Model       : RC-ladder 7 Elements Model
*//   Copyright (C) 2020 Nippon Chemi-Con Corporation.
*//   All Rights Reserved.
*//-----------------------------------------------------------------------//

.SUBCKT APSC2R5ELL821MH08J_20deg-C 1 2

C1 4 2 6.76e-04
C2 5 2 1.24e-04
C3 6 2 2.38e-05
R1 3 4 4.10e-03
R2 4 5 3.68e-02
R3 5 6 2.14e+00
L1 1 3 2.60e-09

.ENDS
