*$
*//-----------------------------------------------------------------------//
*//   Part No.    : APSC6R3E561MH08S
*//   Date        : 2020/12/24
*//   Temperature : 20deg.C
*//   Model       : RC-ladder 7 Elements Model
*//   Copyright (C) 2020 Nippon Chemi-Con Corporation.
*//   All Rights Reserved.
*//-----------------------------------------------------------------------//

.SUBCKT APSC6R3ELL561MH08S_20deg-C 1 2

C1 4 2 4.22e-04
C2 5 2 7.66e-05
C3 6 2 1.49e-05
R1 3 4 5.43e-03
R2 4 5 6.89e-02
R3 5 6 3.17e+00
L1 1 3 2.60e-09

.ENDS
