*$
*//-----------------------------------------------------------------------//
*//   Part No.    : APSC6R3E821MJB5S
*//   Date        : 2020/12/24
*//   Temperature : 20deg.C
*//   Model       : RC-ladder 7 Elements Model
*//   Copyright (C) 2020 Nippon Chemi-Con Corporation.
*//   All Rights Reserved.
*//-----------------------------------------------------------------------//

.SUBCKT APSC6R3ELL821MJB5S_20deg-C 1 2

C1 4 2 5.43e-04
C2 5 2 2.49e-04
C3 6 2 3.22e-05
R1 3 4 4.14e-03
R2 4 5 1.77e-02
R3 5 6 1.62e+00
L1 1 3 4.00e-09

.ENDS
