*$
*//-----------------------------------------------------------------------//
*//   Part No.    : APSE4R0E561MF08S
*//   Date        : 2020/12/24
*//   Temperature : 20deg.C
*//   Model       : RC-ladder 7 Elements Model
*//   Copyright (C) 2020 Nippon Chemi-Con Corporation.
*//   All Rights Reserved.
*//-----------------------------------------------------------------------//

.SUBCKT APSE4R0ELL561MF08S_20deg-C 1 2

C1 4 2 3.66e-04
C2 5 2 1.74e-04
C3 6 2 2.26e-05
R1 3 4 3.90e-03
R2 4 5 1.68e-02
R3 5 6 8.46e-01
L1 1 3 2.00e-09

.ENDS
