*$
*//-----------------------------------------------------------------------//
*//   Part No.    : APSE6R3E471MF08S
*//   Date        : 2020/12/24
*//   Temperature : 20deg.C
*//   Model       : RC-ladder 7 Elements Model
*//   Copyright (C) 2020 Nippon Chemi-Con Corporation.
*//   All Rights Reserved.
*//-----------------------------------------------------------------------//

.SUBCKT APSE6R3ELL471MF08S_20deg-C 1 2

C1 4 2 2.99e-04
C2 5 2 1.28e-04
C3 6 2 1.63e-05
R1 3 4 3.96e-03
R2 4 5 1.69e-02
R3 5 6 1.45e+00
L1 1 3 2.00e-09

.ENDS
