*$
*//-----------------------------------------------------------------------//
*//   Part No.    : APSE2R5E821MF08S
*//   Date        : 2020/12/24
*//   Temperature : 20deg.C
*//   Model       : RC-ladder 7 Elements Model
*//   Copyright (C) 2020 Nippon Chemi-Con Corporation.
*//   All Rights Reserved.
*//-----------------------------------------------------------------------//

.SUBCKT APSE2R5ELL821MF08S_20deg-C 1 2

C1 4 2 5.58e-04
C2 5 2 2.08e-04
C3 6 2 2.40e-05
R1 3 4 3.93e-03
R2 4 5 1.87e-02
R3 5 6 9.00e-01
L1 1 3 2.00e-09

.ENDS
