*$
*//-----------------------------------------------------------------------//
*//   Part No.    : APSF2R5E561MF08S
*//   Date        : 2020/12/24
*//   Temperature : 20deg.C
*//   Model       : RC-ladder 7 Elements Model
*//   Copyright (C) 2020 Nippon Chemi-Con Corporation.
*//   All Rights Reserved.
*//-----------------------------------------------------------------------//

.SUBCKT APSF2R5ELL561MF08S_20deg-C 1 2

C1 4 2 5.10e-04
C2 5 2 5.71e-05
C3 6 2 1.80e-05
R1 3 4 2.74e-03
R2 4 5 1.04e-01
R3 5 6 1.40e+00
L1 1 3 2.00e-09

.ENDS
