*$
*//-----------------------------------------------------------------------//
*//   Part No.    : APSF160E101MF05S
*//   Date        : 2020/12/24
*//   Temperature : 20deg.C
*//   Model       : RC-ladder 7 Elements Model
*//   Copyright (C) 2020 Nippon Chemi-Con Corporation.
*//   All Rights Reserved.
*//-----------------------------------------------------------------------//

.SUBCKT APSF160ELL101MF05S_20deg-C 1 2

C1 4 2 6.30e-05
C2 5 2 2.69e-05
C3 6 2 7.52e-06
R1 3 4 1.51e-02
R2 4 5 7.38e-02
R3 5 6 2.23e+00
L1 1 3 2.20e-09

.ENDS
