*$
*//-----------------------------------------------------------------------//
*//   Part No.    : APSF160E331MH08S
*//   Date        : 2020/12/24
*//   Temperature : 20deg.C
*//   Model       : RC-ladder 7 Elements Model
*//   Copyright (C) 2020 Nippon Chemi-Con Corporation.
*//   All Rights Reserved.
*//-----------------------------------------------------------------------//

.SUBCKT APSF160ELL331MH08S_20deg-C 1 2

C1 4 2 1.70e-04
C2 5 2 9.96e-05
C3 6 2 2.63e-05
R1 3 4 7.03e-03
R2 4 5 2.89e-02
R3 5 6 6.09e-01
L1 1 3 2.30e-09

.ENDS
