*$
*//-----------------------------------------------------------------------//
*//   Part No.    : APSF2R5E821MF08S
*//   Date        : 2020/12/24
*//   Temperature : 20deg.C
*//   Model       : RC-ladder 7 Elements Model
*//   Copyright (C) 2020 Nippon Chemi-Con Corporation.
*//   All Rights Reserved.
*//-----------------------------------------------------------------------//

.SUBCKT APSF2R5ELL821MF08S_20deg-C 1 2

C1 4 2 7.02e-04
C2 5 2 9.46e-05
C3 6 2 2.84e-05
R1 3 4 3.21e-03
R2 4 5 4.49e-02
R3 5 6 9.90e-01
L1 1 3 2.00e-09

.ENDS
