*$
*//-----------------------------------------------------------------------//
*//   Part No.    : APSF160E271MH08S
*//   Date        : 2020/12/24
*//   Temperature : 20deg.C
*//   Model       : RC-ladder 7 Elements Model
*//   Copyright (C) 2020 Nippon Chemi-Con Corporation.
*//   All Rights Reserved.
*//-----------------------------------------------------------------------//

.SUBCKT APSF160ELL271MH08S_20deg-C 1 2

C1 4 2 1.91e-04
C2 5 2 5.26e-05
C3 6 2 9.52e-06
R1 3 4 6.06e-03
R2 4 5 4.01e-02
R3 5 6 2.69e+00
L1 1 3 2.30e-09

.ENDS
