*$
*//-----------------------------------------------------------------------//
*//   Part No.    : APSF2R5E471MF08S
*//   Date        : 2020/12/24
*//   Temperature : 20deg.C
*//   Model       : RC-ladder 7 Elements Model
*//   Copyright (C) 2020 Nippon Chemi-Con Corporation.
*//   All Rights Reserved.
*//-----------------------------------------------------------------------//

.SUBCKT APSF2R5ELL471MF08S_20deg-C 1 2

C1 4 2 3.67e-04
C2 5 2 7.42e-05
C3 6 2 3.36e-05
R1 3 4 3.15e-03
R2 4 5 2.08e-02
R3 5 6 4.62e-01
L1 1 3 2.00e-09

.ENDS
