*$
*//-----------------------------------------------------------------------//
*//   Part No.    : APSF2R5E122MF08S
*//   Date        : 2020/12/24
*//   Temperature : 20deg.C
*//   Model       : RC-ladder 7 Elements Model
*//   Copyright (C) 2020 Nippon Chemi-Con Corporation.
*//   All Rights Reserved.
*//-----------------------------------------------------------------------//

.SUBCKT APSF2R5ELL122MF08S_20deg-C 1 2

C1 4 2 8.56e-04
C2 5 2 1.43e-04
C3 6 2 7.52e-05
R1 3 4 3.15e-03
R2 4 5 1.50e-02
R3 5 6 1.76e-01
L1 1 3 1.90e-09

.ENDS
