*$
*//-----------------------------------------------------------------------//
*//   Part No.    : APSF2R0E102MF08S
*//   Date        : 2020/12/24
*//   Temperature : 20deg.C
*//   Model       : RC-ladder 7 Elements Model
*//   Copyright (C) 2020 Nippon Chemi-Con Corporation.
*//   All Rights Reserved.
*//-----------------------------------------------------------------------//

.SUBCKT APSF2R0ELL102MF08S_20deg-C 1 2

C1 4 2 7.59e-04
C2 5 2 1.89e-04
C3 6 2 4.85e-05
R1 3 4 3.81e-03
R2 4 5 2.66e-02
R3 5 6 7.30e-01
L1 1 3 2.00e-09

.ENDS
