*$
*//-----------------------------------------------------------------------//
*//   Part No.    : APSG160E102MJB5S
*//   Date        : 2020/12/24
*//   Temperature : 20deg.C
*//   Model       : RC-ladder 7 Elements Model
*//   Copyright (C) 2020 Nippon Chemi-Con Corporation.
*//   All Rights Reserved.
*//-----------------------------------------------------------------------//

.SUBCKT APSG160ELL102MJB5S_20deg-C 1 2

C1 4 2 5.90e-04
C2 5 2 3.84e-04
C3 6 2 5.16e-05
R1 3 4 5.82e-03
R2 4 5 1.92e-02
R3 5 6 1.35e+00
L1 1 3 4.20e-09

.ENDS
