*$
*//-----------------------------------------------------------------------// 
*//   Part No.    : APSG250ELL681MJB5S
*//   Date        : 2023/03/07
*//   Temperature : 20deg.C
*//   Model       : RC-ladder 7 Elements Model
*//   Copyright (C) 2023 Nippon Chemi-Con Corporation.
*//   All Rights Reserved.
*//-----------------------------------------------------------------------// 

.SUBCKT APSG250ELL681MJB5S_20deg-C 1 2

C1 4 2 3.83e-04
C2 5 2 1.96e-04
C3 6 2 2.85e-05
R1 3 4 8.41e-03
R2 4 5 2.54e-02
R3 5 6 4.98e-01
L1 1 3 4.20e-09

.ENDS
*$
