*$
*//-----------------------------------------------------------------------// 
*//   Part No.    : APSG250ELL151MF08S
*//   Date        : 2023/03/07
*//   Temperature : 20deg.C
*//   Model       : RC-ladder 7 Elements Model
*//   Copyright (C) 2023 Nippon Chemi-Con Corporation.
*//   All Rights Reserved.
*//-----------------------------------------------------------------------// 

.SUBCKT APSG250ELL151MF08S_20deg-C 1 2

C1 4 2 9.54e-05
C2 5 2 3.46e-05
C3 6 2 9.86e-06
R1 3 4 1.28e-02
R2 4 5 4.30e-02
R3 5 6 1.43e+00
L1 1 3 2.10e-09

.ENDS
*$
