*$
*//-----------------------------------------------------------------------//
*//   Part No.    : APSG200E121MF05S
*//   Date        : 2020/12/24
*//   Temperature : 20deg.C
*//   Model       : RC-ladder 7 Elements Model
*//   Copyright (C) 2020 Nippon Chemi-Con Corporation.
*//   All Rights Reserved.
*//-----------------------------------------------------------------------//

.SUBCKT APSG200ELL121MF05S_20deg-C 1 2

C1 4 2 7.13e-05
C2 5 2 2.69e-05
C3 6 2 5.03e-06
R1 3 4 1.43e-02
R2 4 5 8.17e-02
R3 5 6 5.25e+00
L1 1 3 2.20e-09

.ENDS
