*$
*//-----------------------------------------------------------------------// 
*//   Part No.    : APSG160ELL561MHB5J
*//   Date        : 2023/03/07
*//   Temperature : 20deg.C
*//   Model       : RC-ladder 7 Elements Model
*//   Copyright (C) 2023 Nippon Chemi-Con Corporation.
*//   All Rights Reserved.
*//-----------------------------------------------------------------------// 

.SUBCKT APSG160ELL561MHB5J_20deg-C 1 2

C1 4 2 4.31e-04
C2 5 2 7.76e-05
C3 6 2 1.81e-05
R1 3 4 7.38e-03
R2 4 5 1.18e-01
R3 5 6 1.57e+00
L1 1 3 3.50e-09

.ENDS
*$
