*$
*//-----------------------------------------------------------------------// 
*//   Part No.    : APSG250ELL391MHB5S
*//   Date        : 2023/03/07
*//   Temperature : 20deg.C
*//   Model       : RC-ladder 7 Elements Model
*//   Copyright (C) 2023 Nippon Chemi-Con Corporation.
*//   All Rights Reserved.
*//-----------------------------------------------------------------------// 

.SUBCKT APSG250ELL391MHB5S_20deg-C 1 2

C1 4 2 1.54e-04
C2 5 2 1.42e-04
C3 6 2 4.46e-05
R1 3 4 1.13e-02
R2 4 5 1.34e-02
R3 5 6 2.19e-01
L1 1 3 3.50e-09

.ENDS
*$
