*$
*//-----------------------------------------------------------------------// 
*//   Part No.    : APSG160ELL182MJ16S
*//   Date        : 2023/03/07
*//   Temperature : 20deg.C
*//   Model       : RC-ladder 7 Elements Model
*//   Copyright (C) 2023 Nippon Chemi-Con Corporation.
*//   All Rights Reserved.
*//-----------------------------------------------------------------------// 

.SUBCKT APSG160ELL182MJ16S_20deg-C 1 2

C1 4 2 7.50e-04
C2 5 2 5.71e-04
C3 6 2 1.79e-04
R1 3 4 5.42e-03
R2 4 5 1.25e-02
R3 5 6 1.60e-01
L1 1 3 5.30e-09

.ENDS
*$
