*$
*//-----------------------------------------------------------------------// 
*//   Part No.    : APSG250ELL560MF05S
*//   Date        : 2023/03/07
*//   Temperature : 20deg.C
*//   Model       : RC-ladder 7 Elements Model
*//   Copyright (C) 2023 Nippon Chemi-Con Corporation.
*//   All Rights Reserved.
*//-----------------------------------------------------------------------// 

.SUBCKT APSG250ELL560MF05S_20deg-C 1 2

C1 4 2 4.15e-05
C2 5 2 1.07e-05
C3 6 2 2.60e-06
R1 3 4 1.49e-02
R2 4 5 1.32e-01
R3 5 6 6.80e+00
L1 1 3 2.20e-09

.ENDS
*$
