*$
*//-----------------------------------------------------------------------// 
*//   Part No.    : APSG200ELL681MH16S
*//   Date        : 2023/03/07
*//   Temperature : 20deg.C
*//   Model       : RC-ladder 7 Elements Model
*//   Copyright (C) 2023 Nippon Chemi-Con Corporation.
*//   All Rights Reserved.
*//-----------------------------------------------------------------------// 

.SUBCKT APSG200ELL681MH16S_20deg-C 1 2

C1 4 2 4.15e-04
C2 5 2 1.41e-04
C3 6 2 4.13e-05
R1 3 4 6.12e-03
R2 4 5 4.44e-02
R3 5 6 1.49e+00
L1 1 3 4.40e-09

.ENDS
*$
