*$
*//-----------------------------------------------------------------------// 
*//   Part No.    : APSG160ELL471MH08J
*//   Date        : 2023/03/27
*//   Temperature : 20deg.C
*//   Model       : RC-ladder 7 Elements Model
*//   Copyright (C) 2023 Nippon Chemi-Con Corporation.
*//   All Rights Reserved.
*//-----------------------------------------------------------------------// 

.SUBCKT APSG160ELL471MH08J_20deg-C 1 2

C1 4 2 3.82e-04
C2 5 2 5.23e-05
C3 6 2 9.05e-06
R1 3 4 7.51e-03
R2 4 5 2.47e-01
R3 5 6 1.75e-00
L1 1 3 2.30e-09

.ENDS
*$
