*$
*//-----------------------------------------------------------------------// 
*//   Part No.    : APSG160ELL271MF08J
*//   Date        : 2023/03/07
*//   Temperature : 20deg.C
*//   Model       : RC-ladder 7 Elements Model
*//   Copyright (C) 2023 Nippon Chemi-Con Corporation.
*//   All Rights Reserved.
*//-----------------------------------------------------------------------// 

.SUBCKT APSG160ELL271MF08J_20deg-C 1 2

C1 4 2 2.31e-04
C2 5 2 2.06e-05
C3 6 2 3.14e-06
R1 3 4 8.20e-03
R2 4 5 6.19e-01
R3 5 6 6.23e+01
L1 1 3 2.10e-09

.ENDS
*$
