*$
*//-----------------------------------------------------------------------//
*//   Part No.    : APSG160E821MJB5S
*//   Date        : 2020/12/24
*//   Temperature : 20deg.C
*//   Model       : RC-ladder 7 Elements Model
*//   Copyright (C) 2020 Nippon Chemi-Con Corporation.
*//   All Rights Reserved.
*//-----------------------------------------------------------------------//

.SUBCKT APSG160ELL821MJB5S_20deg-C 1 2

C1 4 2 5.67e-04
C2 5 2 1.94e-04
C3 6 2 3.49e-05
R1 3 4 6.18e-03
R2 4 5 3.18e-02
R3 5 6 1.85e+00
L1 1 3 4.20e-09

.ENDS
