*$
*//-----------------------------------------------------------------------// 
*//   Part No.    : APSG350ELL680MHB5S
*//   Date        : 2023/03/07
*//   Temperature : 20deg.C
*//   Model       : RC-ladder 7 Elements Model
*//   Copyright (C) 2023 Nippon Chemi-Con Corporation.
*//   All Rights Reserved.
*//-----------------------------------------------------------------------// 

.SUBCKT APSG350ELL680MHB5S_20deg-C 1 2

C1 4 2 5.93e-05
C2 5 2 3.35e-06
C3 6 2 1.18e-06
R1 3 4 1.09e-02
R2 4 5 2.31e+00
R3 5 6 5.49e+01
L1 1 3 3.50e-09

.ENDS
*$
