*$
*//-----------------------------------------------------------------------// 
*//   Part No.    : APSG160ELL222MJ20S
*//   Date        : 2023/03/07
*//   Temperature : 20deg.C
*//   Model       : RC-ladder 7 Elements Model
*//   Copyright (C) 2023 Nippon Chemi-Con Corporation.
*//   All Rights Reserved.
*//-----------------------------------------------------------------------// 

.SUBCKT APSG160ELL222MJ20S_20deg-C 1 2

C1 4 2 1.38e-03
C2 5 2 4.97e-04
C3 6 2 3.55e-06
R1 3 4 7.32e-03
R2 4 5 8.24e-02
R3 5 6 1.03e+00
L1 1 3 5.60e-09

.ENDS
*$
