*$
*//-----------------------------------------------------------------------// 
*//   Part No.    : APSG250ELL271MH08S
*//   Date        : 2023/03/07
*//   Temperature : 20deg.C
*//   Model       : RC-ladder 7 Elements Model
*//   Copyright (C) 2023 Nippon Chemi-Con Corporation.
*//   All Rights Reserved.
*//-----------------------------------------------------------------------// 

.SUBCKT APSG250ELL271MH08S_20deg-C 1 2

C1 4 2 8.54e-05
C2 5 2 1.08e-04
C3 6 2 4.77e-05
R1 3 4 1.05e-02
R2 4 5 9.97e-03
R3 5 6 2.10e-01
L1 1 3 2.30e-09

.ENDS
*$
