*$
*//-----------------------------------------------------------------------// 
*//   Part No.    : APSG160ELL561MH08J
*//   Date        : 2023/03/27
*//   Temperature : 20deg.C
*//   Model       : RC-ladder 7 Elements Model
*//   Copyright (C) 2023 Nippon Chemi-Con Corporation.
*//   All Rights Reserved.
*//-----------------------------------------------------------------------// 

.SUBCKT APSG160ELL561MH08J_20deg-C 1 2

C1 4 2 4.31e-04
C2 5 2 6.48e-05
C3 6 2 7.52e-06
R1 3 4 7.15e-03
R2 4 5 1.56e-01
R3 5 6 7.23e+00
L1 1 3 2.30e-09

.ENDS
*$
