*$
*//-----------------------------------------------------------------------//
*//   Part No.    : APSG160E151MF05S
*//   Date        : 2020/12/24
*//   Temperature : 20deg.C
*//   Model       : RC-ladder 7 Elements Model
*//   Copyright (C) 2020 Nippon Chemi-Con Corporation.
*//   All Rights Reserved.
*//-----------------------------------------------------------------------//

.SUBCKT APSG160ELL151MF05S_20deg-C 1 2

C1 4 2 1.00e-04
C2 5 2 3.78e-05
C3 6 2 8.11e-06
R1 3 4 1.15e-02
R2 4 5 5.99e-02
R3 5 6 2.03e+00
L1 1 3 2.20e-09

.ENDS
