*$
*//-----------------------------------------------------------------------// 
*//   Part No.    : APSG160ELL272MJ20S
*//   Date        : 2022/09/28
*//   Update      : 2023/09/29 Each Parameter
*//   Temperature : 20deg.C
*//   Model       : RC-ladder 7 Elements Model
*//   Copyright (C) 2022 Nippon Chemi-Con Corporation.
*//   All Rights Reserved.
*//-----------------------------------------------------------------------// 

.SUBCKT APSG160ELL272MJ20S_20deg-C 1 2

C1 4 2 1.44e-03
C2 5 2 5.80e-04
C3 6 2 2.77e-04
R1 3 4 6.84e-03
R2 4 5 4.20e-02
R3 5 6 4.00e-01
L1 1 3 4.20e-09

.ENDS
*$
