*$
*//-----------------------------------------------------------------------// 
*//   Part No.    : APSG160ELL182MJ20S
*//   Date        : 2023/03/07
*//   Temperature : 20deg.C
*//   Model       : RC-ladder 7 Elements Model
*//   Copyright (C) 2023 Nippon Chemi-Con Corporation.
*//   All Rights Reserved.
*//-----------------------------------------------------------------------// 

.SUBCKT APSG160ELL182MJ20S_20deg-C 1 2

C1 4 2 8.58e-04
C2 5 2 4.08e-04
C3 6 2 3.91e-04
R1 3 4 6.62e-03
R2 4 5 8.62e-03
R3 5 6 5.45e-02
L1 1 3 5.60e-09

.ENDS
*$
