*$
*//-----------------------------------------------------------------------// 
*//   Part No.    : APSG250ELL561MH16S
*//   Date        : 2023/03/07
*//   Temperature : 20deg.C
*//   Model       : RC-ladder 7 Elements Model
*//   Copyright (C) 2023 Nippon Chemi-Con Corporation.
*//   All Rights Reserved.
*//-----------------------------------------------------------------------// 

.SUBCKT APSG250ELL561MH16S_20deg-C 1 2

C1 4 2 3.52e-04
C2 5 2 1.32e-04
C3 6 2 2.46e-05
R1 3 4 9.00e-03
R2 4 5 4.05e-02
R3 5 6 1.27e+00
L1 1 3 4.40e-09

.ENDS
*$
