*$
*//-----------------------------------------------------------------------//
*//   Part No.    : APSG160E471MH08S
*//   Date        : 2020/12/24
*//   Temperature : 20deg.C
*//   Model       : RC-ladder 7 Elements Model
*//   Copyright (C) 2020 Nippon Chemi-Con Corporation.
*//   All Rights Reserved.
*//-----------------------------------------------------------------------//

.SUBCKT APSG160ELL471MH08S_20deg-C 1 2

C1 4 2 3.26e-04
C2 5 2 1.37e-04
C3 6 2 2.85e-05
R1 3 4 7.29e-03
R2 4 5 2.82e-02
R3 5 6 1.30e+00
L1 1 3 2.30e-09

.ENDS
