*$
*//-----------------------------------------------------------------------// 
*//   Part No.    : APSG160ELL681MHB5S
*//   Date        : 2023/03/07
*//   Temperature : 20deg.C
*//   Model       : RC-ladder 7 Elements Model
*//   Copyright (C) 2023 Nippon Chemi-Con Corporation.
*//   All Rights Reserved.
*//-----------------------------------------------------------------------// 

.SUBCKT APSG160ELL681MHB5S_20deg-C 1 2

C1 4 2 4.30e-04
C2 5 2 1.25e-04
C3 6 2 2.87e-05
R1 3 4 7.05e-03
R2 4 5 4.66e-02
R3 5 6 1.20e+00
L1 1 3 3.50e-09

.ENDS
*$
