*$
*//-----------------------------------------------------------------------// 
*//   Part No.    : APSG350ELL121MJB5S
*//   Date        : 2023/03/27
*//   Temperature : 20deg.C
*//   Model       : RC-ladder 7 Elements Model
*//   Copyright (C) 2023 Nippon Chemi-Con Corporation.
*//   All Rights Reserved.
*//-----------------------------------------------------------------------// 

.SUBCKT APSG350ELL121MJB5S_20deg-C 1 2

C1 4 2 5.27e-05
C2 5 2 4.35e-05
C3 6 2 1.04e-05
R1 3 4 7.38e-03
R2 4 5 1.25e-02
R3 5 6 8.38e-01
L1 1 3 4.20e-09

.ENDS
*$
