*$
*//-----------------------------------------------------------------------//
*//   Part No.    : APSG160E561MHB5S
*//   Date        : 2020/12/24
*//   Temperature : 20deg.C
*//   Model       : RC-ladder 7 Elements Model
*//   Copyright (C) 2020 Nippon Chemi-Con Corporation.
*//   All Rights Reserved.
*//-----------------------------------------------------------------------//

.SUBCKT APSG160ELL561MHB5S_20deg-C 1 2

C1 4 2 3.60e-04
C2 5 2 1.82e-04
C3 6 2 3.34e-05
R1 3 4 6.91e-03
R2 4 5 3.04e-02
R3 5 6 1.42e+00
L1 1 3 3.50e-09

.ENDS
