*$
*//-----------------------------------------------------------------------// 
*//   Part No.    : APSG160ELL152MH20S
*//   Date        : 2023/03/07
*//   Temperature : 20deg.C
*//   Model       : RC-ladder 7 Elements Model
*//   Copyright (C) 2023 Nippon Chemi-Con Corporation.
*//   All Rights Reserved.
*//-----------------------------------------------------------------------// 

.SUBCKT APSG160ELL152MH20S_20deg-C 1 2

C1 4 2 6.22e-04
C2 5 2 3.71e-04
C3 6 2 2.45e-04
R1 3 4 5.31e-03
R2 4 5 1.45e-02
R3 5 6 1.01e-01
L1 1 3 4.60e-09

.ENDS
*$
