*$
*//-----------------------------------------------------------------------// 
*//   Part No.    : APSG160ELL561MH08S
*//   Date        : 2023/03/27
*//   Temperature : 20deg.C
*//   Model       : RC-ladder 7 Elements Model
*//   Copyright (C) 2023 Nippon Chemi-Con Corporation.
*//   All Rights Reserved.
*//-----------------------------------------------------------------------// 

.SUBCKT APSG160ELL561MH08S_20deg-C 1 2

C1 4 2 4.36e-04
C2 5 2 6.75e-05
C3 6 2 1.41e-05
R1 3 4 8.71e-03
R2 4 5 1.26e-01
R3 5 6 9.21e+00
L1 1 3 2.30e-09

.ENDS
*$
