*$
*//-----------------------------------------------------------------------//
*//   Part No.    : APSK2R5E561ME08S
*//   Date        : 2020/12/24
*//   Temperature : 20deg.C
*//   Model       : RC-ladder 7 Elements Model
*//   Copyright (C) 2020 Nippon Chemi-Con Corporation.
*//   All Rights Reserved.
*//-----------------------------------------------------------------------//

.SUBCKT APSK2R5ELL561ME08S_20deg-C 1 2

C1 4 2 4.37e-04
C2 5 2 6.88e-05
C3 6 2 2.27e-05
R1 3 4 4.48e-03
R2 4 5 8.51e-02
R3 5 6 8.90e-01
L1 1 3 1.80e-09

.ENDS
