Version 4
SHEET 1 1844 876
WIRE 368 -256 336 -256
WIRE 336 -224 336 -256
WIRE 288 -192 128 -192
WIRE 528 -192 400 -192
WIRE 128 -160 128 -192
WIRE 336 -144 336 -160
WIRE 704 -144 704 -176
WIRE 128 -48 128 -80
WIRE 704 -32 704 -64
WIRE 368 -16 336 -16
WIRE 336 16 336 -16
WIRE 288 48 128 48
WIRE 528 48 400 48
WIRE 128 80 128 48
WIRE 336 96 336 80
WIRE 128 192 128 160
WIRE 368 224 336 224
WIRE 336 256 336 224
WIRE 288 288 128 288
WIRE 528 288 400 288
WIRE 128 320 128 288
WIRE 528 320 528 288
WIRE 336 336 336 320
WIRE 128 432 128 400
FLAG 704 -32 0
FLAG 704 -176 vdd
FLAG 128 -48 0
FLAG 528 -192 out
FLAG 128 -192 in
FLAG 128 192 0
FLAG 528 48 vdd
FLAG 128 48 in1
FLAG 128 432 0
FLAG 128 288 in2
FLAG 528 320 0
FLAG 336 -144 0
FLAG 368 -256 vdd
FLAG 336 96 0
FLAG 368 -16 vdd
FLAG 336 336 0
FLAG 368 224 vdd
SYMBOL voltage 704 -160 R0
SYMATTR InstName V1
SYMATTR Value 5
SYMBOL voltage 128 -176 R0
WINDOW 123 0 0 Left 0
WINDOW 39 0 0 Left 0
SYMATTR InstName V2
SYMATTR Value PWL(0 0 5m 5 10m 0)
SYMBOL voltage 128 64 R0
WINDOW 123 0 0 Left 0
WINDOW 39 0 0 Left 0
SYMATTR InstName V3
SYMATTR Value PWL(0 0 5m 5 10m 0)
SYMBOL voltage 128 304 R0
WINDOW 123 0 0 Left 0
WINDOW 39 0 0 Left 0
SYMATTR InstName V4
SYMATTR Value PWL(0 0 5m 5 10m 0)
SYMBOL INV4PIN 320 -192 R0
SYMATTR InstName U1
SYMATTR Value CD4049UB
SYMBOL INV4PIN 320 48 R0
SYMATTR InstName U2
SYMATTR Value CD4049UB
SYMBOL INV4PIN 320 288 R0
SYMATTR InstName U3
SYMATTR Value CD4049UB
TEXT 840 -264 Left 0 ;* http://tardis.union.edu/~hedrickj/eer148/CD4049.lib\n \n* sub-circuit for one section of a CD4049UB HEX CMOS inverter\n.SUBCKT CD4049UB 1  2   3   4\n*Hex Buffer    In Out Vcc Vss\nM1 2 1 3 3 CD4049P\nM2 2 1 4 4 CD4049N\n.MODEL CD4049P PMOS (LEVEL=3 VTO=-2.9 KP=2M GAMMA=3.97U\n+ PHI=.75 LAMBDA=1.87M RD=28.2 RS=45.2 IS=31.2F PB=.8 MJ=.46\n+ CBD=148P CBS=177P CGSO=218N CGDO=182N CGBO=299N W=80U L=10U)\n.MODEL CD4049N NMOS (LEVEL=3 VTO=2.1 KP=5M GAMMA=3.97U\n+ PHI=.75 LAMBDA=1.87M RD=4.2 RS=4.2 IS=31.2F PB=.8 MJ=.46\n+ CBD=105P CBS=127P CGSO=156N CGDO=130N CGBO=214N W=40U L=10U)\n.ENDS
TEXT 104 -328 Left 0 !.tran 0 10m 0 1u
TEXT 104 -296 Left 0 !.options plotwinsize=0
TEXT 416 256 Left 0 ;--> 16mA source
TEXT 416 16 Left 0 ;<-- 70mA sink
TEXT 104 -576 Left 0 ;A CD409UB Model From The Internet\n \nIf the subcircuit model is in a file, e.g. "CD4049UB.sub"\nan include SPICE-directive has to be added to the schematic. \n.include CD4049UB.sub\nThe example circuit here is made this way.
