Version 4
SHEET 1 1352 1036
WIRE 176 -624 128 -624
WIRE 512 -624 464 -624
WIRE 128 -560 16 -560
WIRE 176 -560 128 -560
WIRE 512 -560 464 -560
WIRE 576 -560 512 -560
WIRE -704 -528 -704 -560
WIRE 176 -496 128 -496
WIRE 512 -496 464 -496
WIRE 608 -496 512 -496
WIRE 16 -448 16 -560
WIRE 176 -432 128 -432
WIRE 512 -432 464 -432
WIRE -1024 -400 -1152 -400
WIRE -896 -400 -1024 -400
WIRE -768 -400 -896 -400
WIRE -704 -400 -704 -448
WIRE -704 -400 -768 -400
WIRE -640 -400 -704 -400
WIRE -512 -400 -640 -400
WIRE -384 -400 -512 -400
WIRE -256 -400 -384 -400
WIRE -1152 -368 -1152 -400
WIRE -1024 -368 -1024 -400
WIRE -896 -368 -896 -400
WIRE -768 -368 -768 -400
WIRE -640 -368 -640 -400
WIRE -512 -368 -512 -400
WIRE -384 -368 -384 -400
WIRE -256 -368 -256 -400
WIRE 176 -368 128 -368
WIRE 512 -368 464 -368
WIRE 128 -304 80 -304
WIRE 176 -304 128 -304
WIRE 512 -304 464 -304
WIRE 16 -240 16 -336
WIRE 128 -240 16 -240
WIRE 176 -240 128 -240
WIRE 512 -240 464 -240
WIRE 576 -240 576 -560
WIRE 576 -240 512 -240
WIRE -1152 -192 -1152 -288
WIRE -1024 -192 -1024 -288
WIRE -896 -192 -896 -288
WIRE -768 -192 -768 -288
WIRE -640 -192 -640 -288
WIRE -512 -192 -512 -288
WIRE -384 -192 -384 -288
WIRE -256 -192 -256 -288
WIRE 176 -176 128 -176
WIRE 512 -176 464 -176
WIRE 80 -96 80 -304
WIRE 608 -96 608 -496
WIRE 608 -96 80 -96
WIRE -768 -16 -832 -16
WIRE -560 -16 -656 -16
WIRE -480 -16 -560 -16
WIRE -304 -16 -368 -16
WIRE 144 0 32 0
WIRE 256 0 144 0
WIRE -1168 32 -1168 -16
WIRE -1040 32 -1040 -16
WIRE -560 32 -560 -16
WIRE 32 32 32 0
WIRE 144 32 144 0
WIRE -304 64 -304 -16
WIRE -240 64 -304 64
WIRE -832 144 -832 -16
WIRE -768 144 -832 144
WIRE -560 144 -560 112
WIRE -560 144 -688 144
WIRE -432 144 -560 144
WIRE -304 144 -304 64
WIRE -304 144 -368 144
WIRE 32 144 32 112
WIRE 144 144 144 112
WIRE -1040 176 -1040 112
WIRE -992 176 -1040 176
WIRE -1168 208 -1168 112
WIRE -1040 208 -1040 176
FLAG -1152 -192 5
FLAG -896 -192 3
FLAG -768 -192 10
FLAG -1024 -192 4
FLAG -640 -192 13
FLAG -512 -192 12
FLAG -384 -192 11
FLAG -256 -192 2
FLAG 32 144 0
FLAG 144 144 0
FLAG 256 0 14
FLAG 128 -560 2
FLAG 512 -304 11
FLAG 512 -368 12
FLAG 512 -432 13
FLAG 512 -240 10
FLAG 128 -496 3
FLAG 128 -432 4
FLAG 128 -368 5
FLAG 128 -240 7
FLAG 128 -624 CLK
FLAG 512 -176 CLK
FLAG 128 -176 Vbb
FLAG 512 -624 Vcc
FLAG 128 -304 6
FLAG 512 -496 14
FLAG 512 -560 15
FLAG -704 -560 OUT
FLAG -240 64 CLK
FLAG -1168 -16 Vcc
FLAG -1168 208 0
FLAG -1040 -16 Vdd
FLAG -1040 208 0
FLAG -992 176 Vbb
SYMBOL res -1168 -384 R0
SYMATTR InstName R6
SYMATTR Value 1K
SYMBOL CURRENT 144 112 M180
WINDOW 0 24 88 Left 0
WINDOW 3 24 0 Left 0
WINDOW 123 0 0 Left 0
WINDOW 39 0 0 Left 0
SYMATTR InstName I1
SYMATTR Value PULSE(0 1 0 1u 1u 25m 50m 1)
SYMBOL RES 16 16 R0
SYMATTR InstName R10
SYMATTR Value 5
SYMBOL Misc\\DIP16 320 -528 R0
WINDOW 3 0 -116 Center 0
SYMATTR Value CD4015B
SYMATTR InstName U1
SYMBOL CD4049B -720 -80 R0
SYMATTR InstName U2
SYMBOL CD4049B -432 -80 R0
SYMATTR InstName U3
SYMBOL res -672 128 R90
WINDOW 0 0 56 VBottom 0
WINDOW 3 32 56 VTop 0
SYMATTR InstName R12
SYMATTR Value 1000K
SYMBOL res -544 128 R180
WINDOW 0 36 76 Left 0
WINDOW 3 36 40 Left 0
SYMATTR InstName R14
SYMATTR Value 1039K
SYMBOL cap -368 128 R90
WINDOW 0 0 32 VBottom 0
WINDOW 3 32 32 VTop 0
SYMATTR InstName C4
SYMATTR Value .1µ
SYMBOL voltage -1168 16 R0
SYMATTR InstName V2
SYMATTR Value 9
SYMBOL voltage -1040 16 R0
SYMATTR InstName V3
SYMATTR Value -9
SYMBOL res -720 -544 R0
SYMATTR InstName R9
SYMATTR Value 100K
SYMBOL CD4049B 80 -400 R90
SYMATTR InstName U5
SYMBOL res -1040 -384 R0
SYMATTR InstName R1
SYMATTR Value 1K
SYMBOL res -912 -384 R0
SYMATTR InstName R2
SYMATTR Value 1K
SYMBOL res -784 -384 R0
SYMATTR InstName R3
SYMATTR Value 1K
SYMBOL res -656 -384 R0
SYMATTR InstName R4
SYMATTR Value 1K
SYMBOL res -528 -384 R0
SYMATTR InstName R5
SYMATTR Value 1K
SYMBOL res -400 -384 R0
SYMATTR InstName R7
SYMATTR Value 1K
SYMBOL res -272 -384 R0
SYMATTR InstName R8
SYMATTR Value 1K
TEXT -224 -56 Left 0 !.tran 0 10 10n
TEXT -1208 -672 Left 0 !.INC CD4000.lib
TEXT -1216 -592 Left 0 !.param mTD=10n\n.param VH=5
TEXT -704 224 Left 0 ;R14 set to 39K for 14Hz, 1Meg for < 1Hz
TEXT -2416 -752 Left 0 !.SUBCKT CD4015B 1 2 3 4 5 6 7 8 9 10 11 12 13 14 15 16\nR2 8 16 10Meg\nXU2 7 P001 VDD 0 CD4049B VDD=9 SPEED=1.0 TRIPDT=5e-9\nXU3 P001 N001 VDD 0 CD4049B VDD=9 SPEED=1.0 TRIPDT=5e-9\nXU4 NC_01 N002 N001 N005 N009 N007 VDD 0 CD4013B VDD=9 SPEED=1.0 TRIPDT=5e-9\nXU5 N007 5 VDD 0 CD4049B VDD=9 SPEED=1.0 TRIPDT=5e-9\nXU6 9 N002 VDD 0 CD4049B VDD=9 SPEED=1.0 TRIPDT=5e-9\nXU7 6 P002 VDD 0 CD4049B VDD=9 SPEED=1.0 TRIPDT=5e-9\nXU8 P002 N005 VDD 0 CD4049B VDD=9 SPEED=1.0 TRIPDT=5e-9\nXU9 NC_02 N002 N009 N005 N013 N011 VDD 0 CD4013B VDD=9 SPEED=1.0 TRIPDT=5e-9\nXU10 N011 4 VDD 0 CD4049B VDD=9 SPEED=1.0 TRIPDT=5e-9\nXU11 NC_03 N002 N013 N005 N017 N015 VDD 0 CD4013B VDD=9 SPEED=1.0 TRIPDT=5e-9\nXU12 N015 3 VDD 0 CD4049B VDD=9 SPEED=1.0 TRIPDT=5e-9\nXU13 NC_04 N002 N017 N005 NC_05 N019 VDD 0 CD4013B VDD=9 SPEED=1.0 TRIPDT=5e-9\nXU14 N019 10 VDD 0 CD4049B VDD=9 SPEED=1.0 TRIPDT=5e-9\nXU1 15 P003 VDD 0 CD4049B VDD=9 SPEED=1.0 TRIPDT=5e-9\nXU15 P003 N003 VDD 0 CD4049B VDD=9 SPEED=1.0 TRIPDT=5e-9\nXU16 NC_06 N004 N003 N006 N010 N008 VDD 0 CD4013B VDD=9 SPEED=1.0 TRIPDT=5e-9\nXU17 N008 13 VDD 0 CD4049B VDD=9 SPEED=1.0 TRIPDT=5e-9\nXU18 1 N004 VDD 0 CD4049B VDD=9 SPEED=1.0 TRIPDT=5e-9\nXU19 14 P004 VDD 0 CD4049B VDD=9 SPEED=1.0 TRIPDT=5e-9\nXU20 P004 N006 VDD 0 CD4049B VDD=9 SPEED=1.0 TRIPDT=5e-9\nXU21 NC_07 N004 N010 N006 N014 N012 VDD 0 CD4013B VDD=9 SPEED=1.0 TRIPDT=5e-9\nXU22 N012 12 VDD 0 CD4049B VDD=9 SPEED=1.0 TRIPDT=5e-9\nXU23 NC_08 N004 N014 N006 N018 N016 VDD 0 CD4013B VDD=9 SPEED=1.0 TRIPDT=5e-9\nXU24 N016 11 VDD 0 CD4049B VDD=9 SPEED=1.0 TRIPDT=5e-9\nXU25 NC_09 N004 N018 N006 NC_10 N020 VDD 0 CD4013B VDD=9 SPEED=1.0 TRIPDT=5e-9\nXU26 N020 2 VDD 0 CD4049B VDD=9 SPEED=1.0 TRIPDT=5e-9\n.ENDS
