Version 4
SHEET 1 880 680
WIRE -176 320 -176 192
WIRE -176 512 -176 400
WIRE 32 192 -176 192
WIRE 160 352 160 288
WIRE 160 384 160 352
WIRE 160 512 -176 512
WIRE 160 512 160 464
WIRE 160 544 160 512
WIRE 352 192 288 192
WIRE 352 224 352 192
WIRE 352 352 160 352
WIRE 352 352 352 304
WIRE 480 192 352 192
WIRE 480 288 480 192
WIRE 480 512 160 512
WIRE 480 512 480 352
WIRE 544 192 480 192
FLAG 544 192 out
IOPIN 544 192 Out
FLAG 160 544 0
SYMBOL res 336 208 R0
SYMATTR InstName R1
SYMATTR Value 270
SYMBOL res 144 368 R0
SYMATTR InstName R2
SYMATTR Value 2.2k
SYMBOL cap 464 288 R0
SYMATTR InstName C1
SYMATTR Value 10µ
SYMBOL voltage -176 304 R0
SYMATTR InstName V1
SYMATTR Value 22V
SYMBOL Robertugo\\reg3all 160 192 R0
SYMATTR InstName U1
SYMATTR SpiceModel LM317
TEXT -176 112 Left 0 !.op
