Version 4
SHEET 1 880 680
WIRE 64 -272 -32 -272
WIRE 256 -272 64 -272
WIRE 624 -272 592 -272
WIRE 624 -240 624 -272
WIRE 64 -224 64 -272
WIRE 256 -224 256 -272
WIRE 0 -176 -32 -176
WIRE 192 -176 160 -176
WIRE 624 -128 624 -160
WIRE -32 -96 -32 -176
WIRE 64 -96 64 -128
WIRE 64 -96 -32 -96
WIRE 160 -96 160 -176
WIRE 160 -96 64 -96
WIRE 624 -64 592 -64
WIRE -32 -48 -32 -96
WIRE 256 -48 256 -128
WIRE 624 -32 624 -64
WIRE -32 64 -32 32
WIRE 256 64 256 32
WIRE 624 80 624 48
WIRE -544 96 -576 96
WIRE -416 96 -464 96
WIRE -352 96 -416 96
WIRE -224 96 -272 96
WIRE -576 128 -576 96
WIRE -304 160 -352 160
WIRE -352 192 -352 160
WIRE -416 208 -416 96
WIRE -384 208 -416 208
WIRE -224 224 -224 96
WIRE -224 224 -320 224
WIRE -192 224 -224 224
WIRE -496 240 -528 240
WIRE -384 240 -496 240
WIRE -32 240 -32 208
WIRE 368 240 368 208
WIRE -496 288 -496 240
WIRE 224 288 224 256
WIRE 624 288 624 256
WIRE -352 304 -352 256
WIRE -32 368 -32 320
WIRE 64 368 -32 368
WIRE 128 368 64 368
WIRE 368 368 368 320
WIRE 464 368 368 368
WIRE 528 368 464 368
WIRE -496 400 -496 368
WIRE 64 416 64 368
WIRE 224 416 224 368
WIRE 464 416 464 368
WIRE 624 416 624 368
WIRE -32 464 -32 368
WIRE 0 464 -32 464
WIRE 128 464 128 368
WIRE 160 464 128 464
WIRE 368 464 368 368
WIRE 400 464 368 464
WIRE 528 464 528 368
WIRE 560 464 528 464
WIRE 64 560 64 512
WIRE 224 560 224 512
WIRE 224 560 64 560
WIRE 464 560 464 512
WIRE 624 560 624 512
WIRE 624 560 464 560
WIRE 64 592 64 560
WIRE 464 592 464 560
FLAG -32 64 0
FLAG 256 64 0
FLAG -32 208 0
FLAG 368 208 0
FLAG 224 256 VCC
FLAG 624 256 VCC
FLAG 592 -272 VCC
FLAG 624 -128 0
FLAG 64 592 0
FLAG 464 592 0
FLAG -496 400 0
FLAG 592 -64 VSS
FLAG 624 80 0
FLAG -304 160 VCC
FLAG -352 304 VSS
FLAG -576 128 0
FLAG -192 224 opout
FLAG -528 240 opin
FLAG -32 -272 VCC
SYMBOL npn 0 416 R0
SYMATTR InstName Q1
SYMATTR Value CA3046
SYMBOL npn 160 416 R0
SYMATTR InstName Q2
SYMATTR Value CA3046
SYMBOL npn 400 416 R0
SYMATTR InstName Q3
SYMATTR Value CA3096N
SYMBOL npn 560 416 R0
SYMATTR InstName Q4
SYMATTR Value CA3096N
SYMBOL pnp 192 -128 M180
SYMATTR InstName Q5
SYMATTR Value CA3096P
SYMBOL pnp 0 -128 M180
SYMATTR InstName Q6
SYMATTR Value CA3096P
SYMBOL res 240 -64 R0
SYMATTR InstName R1
SYMATTR Value 1k
SYMBOL res 208 272 R0
SYMATTR InstName R2
SYMATTR Value 1k
SYMBOL res 608 272 R0
SYMATTR InstName R3
SYMATTR Value 1k
SYMBOL current -32 -48 R0
SYMATTR InstName I1
SYMATTR Value 1m
SYMBOL current -32 240 R0
SYMATTR InstName I2
SYMATTR Value 1m
SYMBOL current 368 240 R0
SYMATTR InstName I3
SYMATTR Value 1m
SYMBOL voltage 624 -256 R0
SYMATTR InstName V1
SYMATTR Value 9
SYMBOL res -512 272 R0
SYMATTR InstName R4
SYMATTR Value 10k
SYMBOL res -368 112 R270
WINDOW 0 32 56 VTop 0
WINDOW 3 0 56 VBottom 0
SYMATTR InstName R5
SYMATTR Value 10k
SYMBOL voltage 624 -48 R0
SYMATTR InstName V2
SYMATTR Value -9
SYMBOL res -560 112 R270
WINDOW 0 32 56 VTop 0
WINDOW 3 0 56 VBottom 0
SYMATTR InstName R6
SYMATTR Value 10k
SYMBOL Robertugo\\OPAMP5 -352 160 R0
SYMATTR InstName U1
SYMATTR SpiceModel LM741/NS
TEXT -536 -240 Left 0 !.include CA3000.lib
TEXT -536 -160 Left 0 !.op
