Version 4
SHEET 1 880 680
WIRE -672 -48 -672 -208
WIRE -672 224 -672 32
WIRE -672 256 -672 224
WIRE -528 -208 -672 -208
WIRE -480 224 -672 224
WIRE -480 336 -480 224
WIRE -400 336 -480 336
WIRE -368 -208 -448 -208
WIRE -304 -256 -304 -432
WIRE -304 -128 -304 -160
WIRE -304 -16 -304 -128
WIRE -304 224 -480 224
WIRE -304 224 -304 64
WIRE -224 -128 -304 -128
WIRE -176 -336 -176 -352
WIRE -176 336 -320 336
WIRE -176 336 -176 64
WIRE -112 64 -176 64
WIRE -112 112 -112 64
WIRE -112 224 -304 224
WIRE -112 224 -112 192
WIRE -96 -128 -160 -128
WIRE -48 -336 -48 -352
WIRE -32 64 -112 64
WIRE 16 -128 -16 -128
WIRE 16 -112 16 -128
WIRE 16 -16 16 -32
WIRE 16 224 -112 224
WIRE 16 224 16 80
WIRE 112 -128 16 -128
WIRE 112 16 112 -128
WIRE 112 224 16 224
WIRE 112 224 112 80
WIRE 128 -160 128 -336
WIRE 160 -160 128 -160
WIRE 160 -128 112 -128
WIRE 336 -336 128 -336
WIRE 336 -240 336 -336
WIRE 336 -144 224 -144
WIRE 336 -144 336 -240
FLAG 192 -112 -12V
FLAG 192 -176 12V
FLAG 336 -240 Analogue_out
FLAG -304 -432 12V
FLAG -672 256 0
FLAG -48 -336 0
FLAG -48 -432 12V
FLAG -176 -336 0
FLAG -176 -432 -12V
SYMBOL npn -368 -256 R0
SYMATTR InstName Q1
SYMATTR Value 2N2222
SYMBOL res -432 -224 R90
WINDOW 0 0 56 VBottom 0
WINDOW 3 32 56 VTop 0
SYMATTR InstName R1
SYMATTR Value 22
SYMBOL res -320 -32 R0
SYMATTR InstName R2
SYMATTR Value 10K
SYMBOL diode -224 -112 R270
WINDOW 0 32 32 VTop 0
WINDOW 3 0 32 VBottom 0
SYMATTR InstName D1
SYMATTR Value FLLD258
SYMBOL res 0 -144 R90
WINDOW 0 0 56 VBottom 0
WINDOW 3 32 56 VTop 0
SYMATTR InstName R3
SYMATTR Value 15
SYMBOL cap 96 16 R0
SYMATTR InstName C1
SYMATTR Value 0.1µ
SYMBOL nmos -32 -16 R0
WINDOW 3 -33 107 Left 0
SYMATTR Value SD211
SYMATTR InstName M1
SYMBOL res 0 -128 R0
SYMATTR InstName R4
SYMATTR Value 120
SYMBOL res -128 96 R0
SYMATTR InstName R5
SYMATTR Value 6.8K
SYMBOL res -304 320 R90
WINDOW 0 0 56 VBottom 0
WINDOW 3 32 56 VTop 0
SYMATTR InstName R6
SYMATTR Value 1K
SYMBOL voltage -672 -64 R0
WINDOW 123 0 0 Left 0
WINDOW 39 0 0 Left 0
SYMATTR InstName V1
SYMATTR Value PULSE(0 3 0 10n 10n 10u 100m 1)
SYMBOL voltage -48 -448 R0
WINDOW 123 0 0 Left 0
WINDOW 39 0 0 Left 0
SYMATTR InstName V2
SYMATTR Value 12V
SYMBOL voltage -176 -448 R0
WINDOW 123 0 0 Left 0
WINDOW 39 0 0 Left 0
SYMATTR InstName V3
SYMATTR Value -12V
SYMBOL Robertugo\\OPAMP5 192 -208 R0
WINDOW 0 -24 66 Left 0
SYMATTR InstName U2
SYMATTR SpiceModel TL084
TEXT -1112 -632 Left 0 !*ZETEX FLLD258    Spice Model        Last revision 14/09/2001\n*This single diode model is one half of a common cathode pair.\n*\n.MODEL FLLD258 D IS=3e-14 N=1.13 ISR=3e-13 NR=1.5 RS=1.6\n+IKF=1e-3 Cjo=1.7p M=0.184 Vj=0.13 BV=170 IBV=100E-6\n.MODEL SD211 NMOS (VTO=1V KP=15M)
TEXT -1120 -392 Left 0 ;.include TL084.sub
TEXT -1112 -432 Left 0 !.temp  -40 20 80
TEXT -1120 -352 Left 0 !.tran 100u
