* BKP1608_HS101     SPICE MODEL  ( General Type )
*--------------------------------------------------------------------------------------------------------
* Model Generated by TAIYO YUDEN Corporation (http://www.Ty-top.com)
* Version 2.0
* TAIYO YUDEN Control No. 090304TA15SB-HKH
*--------------------------------------------------------------------------------------------------------
*
* Products Name : Multilayer Ferrite Chip Beads (for Power Supply Lines)
*
* Characteristics :
*     Impedance at 100MHz : 100 Ohm , DC Resistance(max) : 0.05 Ohm , Rated Current : 1700 mA ,
*     Case Size : 1.6 x 0.8 / 0.063 x 0.031 [mm/inch] , Thickness : 0.8 / 0.031 [mm/inch]
*     (Conditions: Temperature = 25 degC , DC Bias Current/Voltage = 0A / 0V)
*
* External Node Assignments :
*
*  1  o---GGG---o  2
*
*--------------------------------------------------------------------------------------------------------
.SubCkt BKP1608_HS101 1 2
****************************
R1 1 7 0.035
C2 7 8 1000000p
R2 8 2 120
C1 7 9 0.46p
R5 9 2 20
L0 7 3 0.204u
L1 3 2 0.476u
L3 3 5 0.204u
R3 5 2 120
****************************
.ends
* BKP1608_HS121     SPICE MODEL  ( General Type )
*--------------------------------------------------------------------------------------------------------
* Model Generated by TAIYO YUDEN Corporation (http://www.Ty-top.com)
* Version 2.0
* TAIYO YUDEN Control No. 090304TA15SB-HKH
*--------------------------------------------------------------------------------------------------------
*
* Products Name : Multilayer Ferrite Chip Beads (for Power Supply Lines)
*
* Characteristics :
*     Impedance at 100MHz : 120 Ohm , DC Resistance(max) : 0.035 Ohm , Rated Current : 2700 mA ,
*     Case Size : 1.6 x 0.8 / 0.063 x 0.031 [mm/inch] , Thickness : 0.8 / 0.031 [mm/inch]
*     (Conditions: Temperature = 25 degC , DC Bias Current/Voltage = 0A / 0V)
*
* External Node Assignments :
*
*  1  o---GGG---o  2
*
*--------------------------------------------------------------------------------------------------------
.SubCkt BKP1608_HS121 1 2
****************************
R1 1 7 0.025
C2 7 8 1000000p
R2 8 2 150
C1 7 9 0.8p
R5 9 2 20
L0 7 3 0.33u
L1 3 2 0.77u
L3 3 5 0.33u
R3 5 2 150
****************************
.ends
* BKP1608_HS181     SPICE MODEL  ( General Type )
*--------------------------------------------------------------------------------------------------------
* Model Generated by TAIYO YUDEN Corporation (http://www.Ty-top.com)
* Version 2.0
* TAIYO YUDEN Control No. 090304TA15SB-HKH
*--------------------------------------------------------------------------------------------------------
*
* Products Name : Multilayer Ferrite Chip Beads (for Power Supply Lines)
*
* Characteristics :
*     Impedance at 100MHz : 180 Ohm , DC Resistance(max) : 0.075 Ohm , Rated Current : 1500 mA ,
*     Case Size : 1.6 x 0.8 / 0.063 x 0.031 [mm/inch] , Thickness : 0.8 / 0.031 [mm/inch]
*     (Conditions: Temperature = 25 degC , DC Bias Current/Voltage = 0A / 0V)
*
* External Node Assignments :
*
*  1  o---GGG---o  2
*
*--------------------------------------------------------------------------------------------------------
.SubCkt BKP1608_HS181 1 2
****************************
R1 1 7 0.055
C2 7 8 1000000p
R2 8 2 210
C1 7 9 0.47p
R5 9 2 20
L0 7 3 0.45u
L1 3 2 1.05u
L3 3 5 0.45u
R3 5 2 210
****************************
.ends
* BKP1608_HS271     SPICE MODEL  ( General Type )
*--------------------------------------------------------------------------------------------------------
* Model Generated by TAIYO YUDEN Corporation (http://www.Ty-top.com)
* Version 2.0
* TAIYO YUDEN Control No. 090304TA15SB-HKH
*--------------------------------------------------------------------------------------------------------
*
* Products Name : Multilayer Ferrite Chip Beads (for Power Supply Lines)
*
* Characteristics :
*     Impedance at 100MHz : 270 Ohm , DC Resistance(max) : 0.11 Ohm , Rated Current : 1200 mA ,
*     Case Size : 1.6 x 0.8 / 0.063 x 0.031 [mm/inch] , Thickness : 0.8 / 0.031 [mm/inch]
*     (Conditions: Temperature = 25 degC , DC Bias Current/Voltage = 0A / 0V)
*
* External Node Assignments :
*
*  1  o---GGG---o  2
*
*--------------------------------------------------------------------------------------------------------
.SubCkt BKP1608_HS271 1 2
****************************
R1 1 7 0.075
C2 7 8 1000000p
R2 8 2 320
C1 7 9 0.45p
R5 9 2 20
L0 7 3 0.6u
L1 3 2 1.4u
L3 3 5 0.6u
R3 5 2 320
****************************
.ends
* BKP1608_HS330     SPICE MODEL  ( General Type )
*--------------------------------------------------------------------------------------------------------
* Model Generated by TAIYO YUDEN Corporation (http://www.Ty-top.com)
* Version 2.0
* TAIYO YUDEN Control No. 090304TA31SB-HEA
*--------------------------------------------------------------------------------------------------------
*
* Products Name : Multilayer Ferrite Chip Beads (for Power Supply Lines)
*
* Characteristics :
*     Impedance at 100MHz : 33 Ohm , DC Resistance(max) : 0.025 Ohm , Rated Current : 3000 mA ,
*     Case Size : 1.6 x 0.8 / 0.063 x 0.031 [mm/inch] , Thickness : 0.8 / 0.031 [mm/inch]
*     (Conditions: Temperature = 25 degC , DC Bias Current/Voltage = 0A / 0V)
*
* External Node Assignments :
*
*  1  o---GGG---o  2
*
*--------------------------------------------------------------------------------------------------------
.SubCkt BKP1608_HS330 1 2
****************************
R1 1 7 0.01
C2 7 8 1000000p
R2 8 2 37
C1 7 9 0.6p
R5 9 2 100
L0 7 3 0.09u
L1 3 2 0.21u
L3 3 5 0.09u
R3 5 2 37
****************************
.ends
* BKP1608_HS391     SPICE MODEL  ( General Type )
*--------------------------------------------------------------------------------------------------------
* Model Generated by TAIYO YUDEN Corporation (http://www.Ty-top.com)
* Version 2.0
* TAIYO YUDEN Control No. 100311TA15SB-HKH
*--------------------------------------------------------------------------------------------------------
*
* Products Name : Multilayer Ferrite Chip Beads (for Power Supply Lines)
*
* Characteristics :
*     Impedance at 100MHz : 390 Ohm , DC Resistance(max) : 0.14 Ohm , Rated Current : 1000 mA ,
*     Case Size : 1.6 x 0.8 / 0.063 x 0.031 [mm/inch] , Thickness : 0.8 / 0.031 [mm/inch]
*     (Conditions: Temperature = 25 degC , DC Bias Current/Voltage = 0A / 0V)
*
* External Node Assignments :
*
*  1  o---GGG---o  2
*
*--------------------------------------------------------------------------------------------------------
.SubCkt BKP1608_HS391 1 2
****************************
R1 1 7 0.08
C2 7 8 1000000p
R2 8 2 460
C1 7 9 0.52p
R5 9 2 20
L0 7 3 0.81u
L1 3 2 1.89u
L3 3 5 0.81u
R3 5 2 460
****************************
.ends
* BKP1608_HS471     SPICE MODEL  ( General Type )
*--------------------------------------------------------------------------------------------------------
* Model Generated by TAIYO YUDEN Corporation (http://www.Ty-top.com)
* Version 1.0
* TAIYO YUDEN Control No. 100317TR15EB-HKH
*--------------------------------------------------------------------------------------------------------
*
* Products Name : Multilayer Ferrite Chip Beads (for Power Supply Lines)
*
* Characteristics :
*     Impedance at 100MHz : 470 Ohm , DC Resistance(max) : 0.18 Ohm , Rated Current : 1000 mA ,
*     Case Size : 1.6 x 0.8 / 0.063 x 0.031 [mm/inch] , Thickness : 0.8 / 0.031 [mm/inch]
*     (Conditions: Temperature = 25 degC , DC Bias Current/Voltage = 0A / 0V)
*
* External Node Assignments :
*
*  1  o---GGG---o  2
*
*--------------------------------------------------------------------------------------------------------
.SubCkt BKP1608_HS471 1 2
****************************
R1 1 7 0.085
C2 7 8 1000000p
R2 8 2 580
C1 7 9 0.52p
R5 9 2 20
L0 7 3 0.81u
L1 3 2 1.89u
L3 3 5 0.81u
R3 5 2 580
****************************
.ends
* BKP1608_HS600     SPICE MODEL  ( General Type )
*--------------------------------------------------------------------------------------------------------
* Model Generated by TAIYO YUDEN Corporation (http://www.Ty-top.com)
* Version 2.0
* TAIYO YUDEN Control No. 090304TA31SB-HEA
*--------------------------------------------------------------------------------------------------------
*
* Products Name : Multilayer Ferrite Chip Beads (for Power Supply Lines)
*
* Characteristics :
*     Impedance at 100MHz : 60 Ohm , DC Resistance(max) : 0.04 Ohm , Rated Current : 2500 mA ,
*     Case Size : 1.6 x 0.8 / 0.063 x 0.031 [mm/inch] , Thickness : 0.8 / 0.031 [mm/inch]
*     (Conditions: Temperature = 25 degC , DC Bias Current/Voltage = 0A / 0V)
*
* External Node Assignments :
*
*  1  o---GGG---o  2
*
*--------------------------------------------------------------------------------------------------------
.SubCkt BKP1608_HS600 1 2
****************************
R1 1 7 0.015
C2 7 8 1000000p
R2 8 2 77
C1 7 9 0.8p
R5 9 2 20
L0 7 3 0.153u
L1 3 2 0.357u
L3 3 5 0.153u
R3 5 2 77
****************************
.ends
