* BKP2125_HS101     SPICE MODEL  ( General Type )
*--------------------------------------------------------------------------------------------------------
* Model Generated by TAIYO YUDEN Corporation (http://www.Ty-top.com)
* Version 1.0
* TAIYO YUDEN Control No. 070822TG03SB-HCA
*--------------------------------------------------------------------------------------------------------
*
* Products Name : Multilayer Ferrite Chip Beads (for Power Supply Lines)
*
* Characteristics :
*     Impedance at 100MHz : 100 Ohm , DC Resistance(max) : 0.04 Ohm , Rated Current : 2500 mA ,
*     Case Size : 2.0 x 1.25 / 0.079 x 0.049 [mm/inch] , Thickness : 0.85 / 0.033 [mm/inch]
*     (Conditions: Temperature = 25 degC , DC Bias Current/Voltage = 0A / 0V)
*
* External Node Assignments :
*
*  1  o---GGG---o  2
*
*--------------------------------------------------------------------------------------------------------
.SubCkt BKP2125_HS101 1 2
****************************
R1 1 7 0.025
R2 7 2 110
C1 7 2 0.7p
L0 7 3 0.273u
L1 3 2 0.637u
L3 3 5 0.273u
R3 5 2 110
****************************
.ends
* BKP2125_HS221     SPICE MODEL  ( General Type )
*--------------------------------------------------------------------------------------------------------
* Model Generated by TAIYO YUDEN Corporation (http://www.Ty-top.com)
* Version 1.0
* TAIYO YUDEN Control No. 070822TG03SB-HCA
*--------------------------------------------------------------------------------------------------------
*
* Products Name : Multilayer Ferrite Chip Beads (for Power Supply Lines)
*
* Characteristics :
*     Impedance at 100MHz : 220 Ohm , DC Resistance(max) : 0.05 Ohm , Rated Current : 2000 mA ,
*     Case Size : 2.0 x 1.25 / 0.079 x 0.049 [mm/inch] , Thickness : 0.85 / 0.033 [mm/inch]
*     (Conditions: Temperature = 25 degC , DC Bias Current/Voltage = 0A / 0V)
*
* External Node Assignments :
*
*  1  o---GGG---o  2
*
*--------------------------------------------------------------------------------------------------------
.SubCkt BKP2125_HS221 1 2
****************************
R1 1 7 0.035
R2 7 2 240
C1 7 2 0.8p
L0 7 3 0.6u
L1 3 2 1.4u
L3 3 5 0.6u
R3 5 2 240
****************************
.ends
* BKP2125_HS330     SPICE MODEL  ( General Type )
*--------------------------------------------------------------------------------------------------------
* Model Generated by TAIYO YUDEN Corporation (http://www.Ty-top.com)
* Version 1.0
* TAIYO YUDEN Control No. 070822TG03SB-HCA
*--------------------------------------------------------------------------------------------------------
*
* Products Name : Multilayer Ferrite Chip Beads (for Power Supply Lines)
*
* Characteristics :
*     Impedance at 100MHz : 33 Ohm , DC Resistance(max) : 0.02 Ohm , Rated Current : 4000 mA ,
*     Case Size : 2.0 x 1.25 / 0.079 x 0.049 [mm/inch] , Thickness : 0.85 / 0.033 [mm/inch]
*     (Conditions: Temperature = 25 degC , DC Bias Current/Voltage = 0A / 0V)
*
* External Node Assignments :
*
*  1  o---GGG---o  2
*
*--------------------------------------------------------------------------------------------------------
.SubCkt BKP2125_HS330 1 2
****************************
R1 1 7 0.005
R2 7 2 41
C1 7 2 0.2p
L0 7 3 0.111u
L1 3 2 0.259u
L3 3 5 0.111u
R3 5 2 41
****************************
.ends
* BKP2125_HS331     SPICE MODEL  ( General Type )
*--------------------------------------------------------------------------------------------------------
* Model Generated by TAIYO YUDEN Corporation (http://www.Ty-top.com)
* Version 1.0
* TAIYO YUDEN Control No. 070822TG03SB-HCA
*--------------------------------------------------------------------------------------------------------
*
* Products Name : Multilayer Ferrite Chip Beads (for Power Supply Lines)
*
* Characteristics :
*     Impedance at 100MHz : 330 Ohm , DC Resistance(max) : 0.075 Ohm , Rated Current : 1500 mA ,
*     Case Size : 2.0 x 1.25 / 0.079 x 0.049 [mm/inch] , Thickness : 0.85 / 0.033 [mm/inch]
*     (Conditions: Temperature = 25 degC , DC Bias Current/Voltage = 0A / 0V)
*
* External Node Assignments :
*
*  1  o---GGG---o  2
*
*--------------------------------------------------------------------------------------------------------
.SubCkt BKP2125_HS331 1 2
****************************
R1 1 7 0.05
R2 7 2 370
C1 7 2 0.9p
L0 7 3 0.99u
L1 3 2 2.31u
L3 3 5 0.99u
R3 5 2 370
****************************
.ends
* BKP2125_HS600     SPICE MODEL  ( General Type )
*--------------------------------------------------------------------------------------------------------
* Model Generated by TAIYO YUDEN Corporation (http://www.Ty-top.com)
* Version 1.0
* TAIYO YUDEN Control No. 070822TG03SB-HCA
*--------------------------------------------------------------------------------------------------------
*
* Products Name : Multilayer Ferrite Chip Beads (for Power Supply Lines)
*
* Characteristics :
*     Impedance at 100MHz : 60 Ohm , DC Resistance(max) : 0.025 Ohm , Rated Current : 3000 mA ,
*     Case Size : 2.0 x 1.25 / 0.079 x 0.049 [mm/inch] , Thickness : 0.85 / 0.033 [mm/inch]
*     (Conditions: Temperature = 25 degC , DC Bias Current/Voltage = 0A / 0V)
*
* External Node Assignments :
*
*  1  o---GGG---o  2
*
*--------------------------------------------------------------------------------------------------------
.SubCkt BKP2125_HS600 1 2
****************************
R1 1 7 0.012
R2 7 2 74
C1 7 2 1.4p
L0 7 3 0.168u
L1 3 2 0.392u
L3 3 5 0.168u
R3 5 2 74
****************************
.ends
