.SUBCKT LT1028_Boyle 3 2 7 4 6
RC1 7 80 70.736
RC2 7 90 70.736
Q1 80 2 10 QM1
Q2 90 3 11 QM2
*
C1 80 91 750E-12
RXC1 91 90 50
CXC1 91 90 400E-12
C2 1 98 3e-11
RXC2 98 8 1K
CXC2 98 8 1e-11
*
CIN 2 3 15E-12
RIN 2 3 2E4
DDM1 2 104 DM2
DDM3 104 3 DM2
DDM2 3 105 DM2
DDM4 105 2 DM2
RE1 10 12 -44.157
RE2 11 12 -44.157
IEE 12 4 4.5006E-04
RE 12 0 444390
CE 12 0 1.5789E-12
GCM 0 8 12 0 7.0854e-9
GA 8 0 80 90 0.014137
R2 8 0 100000
GB 1 0 8 0 267.31
RO2 1 0 79
*
RS 1 6 1
ECL 18 0 1 6 27.91
GCL 0 8 20 0 1
RCL 20 0 1E3
D1 18 20 DM1
D2 20 18 DM1
*
D3A 131 70 DM3
D3B 13 131 DM3
GPL 0 8 70 7 1
VC 13 6 3.6394
RPLA 7 70 1E4
RPLB 7 131 1E5
D4A 60 141 DM3
D4B 141 14 DM3
GNL 0 8 60 4 1
VE 6 14 3.6394
RNLA 60 4 1E4
RNLB 141 4 1E5
*
IP 7 4 0.00745
DSUB 4 7 DM2
* MODELS
.MODEL QM1 NPN(IS=8e-16 BF=7258)
.MODEL QM2 NPN(IS=8.003E-16 BF=11840)
.MODEL DM1 D(IS=1e-19)
.MODEL DM2 D(IS=8e-16)
.MODEL DM3 D(IS=1e-20)
.ENDS LT1028A
