Version 4
SHEET 1 1968 1124
WIRE 96 96 96 80
WIRE 256 96 256 80
WIRE 544 144 384 144
WIRE 544 176 544 144
WIRE 704 176 704 112
WIRE 96 192 96 176
WIRE 256 192 256 176
WIRE 384 256 384 144
WIRE 384 256 352 256
WIRE 416 256 384 256
WIRE 976 272 832 272
WIRE 416 288 240 288
WIRE 976 304 976 272
WIRE 240 320 240 288
WIRE 896 352 832 352
WIRE 128 384 112 384
WIRE 192 384 128 384
WIRE 240 416 240 400
WIRE 896 432 896 352
WIRE 896 432 832 432
WIRE 976 432 976 368
WIRE 976 432 896 432
WIRE 1072 432 976 432
WIRE 416 448 240 448
WIRE 240 480 240 448
WIRE 112 496 112 384
WIRE 192 496 112 496
WIRE 704 576 704 528
WIRE 240 592 240 560
WIRE 112 640 112 496
WIRE 112 768 112 720
FLAG 96 192 0
FLAG 256 192 0
FLAG 96 80 +V
FLAG 256 80 -V
FLAG 704 112 +V
FLAG 352 256 0
FLAG 112 768 0
FLAG 128 384 IN
FLAG 704 576 -V
FLAG 1072 432 OUT
FLAG 240 416 0
FLAG 192 336 0
FLAG 240 592 0
FLAG 192 544 0
SYMBOL voltage 96 80 R0
WINDOW 123 0 0 Left 2
WINDOW 39 0 0 Left 2
SYMATTR InstName V1
SYMATTR Value 5
SYMBOL voltage 256 192 M180
WINDOW 0 24 96 Left 2
WINDOW 3 24 16 Left 2
WINDOW 123 0 0 Left 2
WINDOW 39 0 0 Left 2
SYMATTR InstName V2
SYMATTR Value 5
SYMBOL voltage 112 624 R0
WINDOW 0 46 16 Left 2
WINDOW 3 46 63 Left 2
WINDOW 123 51 101 Left 2
WINDOW 39 0 0 Left 2
SYMATTR InstName V3
SYMATTR Value SINE(0 100m 10)
SYMBOL e 240 304 R0
SYMATTR InstName E1
SYMATTR Value .5
SYMBOL e 240 464 R0
SYMATTR InstName E2
SYMATTR Value .5
SYMBOL cap 960 304 R0
SYMATTR InstName C1
SYMATTR Value .01µ
SYMBOL LTC1100CS 624 352 R0
SYMATTR InstName U2
TEXT 928 624 Left 2 !.tran .3
