Version 4
SHEET 1 896 680
WIRE 256 32 128 32
WIRE 400 32 336 32
WIRE -240 112 -240 96
WIRE -112 112 -112 96
WIRE 128 112 128 32
WIRE 176 112 128 112
WIRE 272 112 240 112
WIRE -240 208 -240 192
WIRE -112 208 -112 192
WIRE 192 208 192 192
WIRE 128 224 128 112
WIRE 160 224 128 224
WIRE 272 240 272 112
WIRE 272 240 224 240
WIRE 304 240 272 240
WIRE 400 240 400 32
WIRE 400 240 384 240
WIRE 448 240 400 240
WIRE 160 256 0 256
WIRE 448 256 448 240
WIRE 0 272 0 256
WIRE 192 288 192 272
WIRE 448 336 448 320
WIRE 0 368 0 352
FLAG -112 208 0
FLAG 192 192 +V
FLAG -112 96 +V
FLAG 192 288 -V
FLAG -240 208 0
FLAG -240 96 -V
FLAG 0 368 0
FLAG 448 336 0
FLAG 0 256 IN
FLAG 448 240 OUT
SYMBOL voltage -112 96 R0
SYMATTR InstName V1
SYMATTR Value 15
SYMBOL voltage -240 96 R0
SYMATTR InstName V2
SYMATTR Value -15
SYMBOL res 352 16 R90
WINDOW 0 0 56 VBottom 2
WINDOW 3 32 56 VTop 2
SYMATTR InstName R1
SYMATTR Value 1K
SYMBOL voltage 0 256 R0
SYMATTR InstName V3
SYMATTR Value PULSE(0 1 0 1u 1u .5m 1m)
SYMBOL opamps\\LT1169 192 176 R0
SYMATTR InstName U1
SYMBOL res 400 224 R90
WINDOW 0 0 56 VBottom 2
WINDOW 3 32 56 VTop 2
SYMATTR InstName R2
SYMATTR Value 33
SYMBOL cap 240 96 R90
WINDOW 0 0 32 VBottom 2
WINDOW 3 32 32 VTop 2
SYMATTR InstName C1
SYMATTR Value .1µ
SYMBOL cap 432 320 M180
WINDOW 0 24 64 Left 2
WINDOW 3 24 8 Left 2
SYMATTR InstName Cload
SYMATTR Value .1µ
TEXT 392 392 Left 2 !.tran 3m
TEXT 40 -24 Bottom 2 ;Unity-Gain Buffer with Extended Load Capacitance Drive Capability
