Version 4
SHEET 1 2336 1256
WIRE 1232 -48 912 -48
WIRE 912 -32 912 -48
WIRE 1232 -16 1232 -48
WIRE 912 64 912 48
WIRE 1360 80 1328 80
WIRE 1232 192 1232 176
FLAG 912 64 0
FLAG 1232 192 0
FLAG 1360 80 OUT
FLAG 912 -48 IN
SYMBOL voltage 912 -48 R0
SYMATTR InstName V1
SYMATTR Value pwl(0 0 1u 12)
SYMBOL LT1236-5 1232 80 R0
SYMATTR InstName U1
TEXT 1376 192 Left 2 !.tran 20u
