Version 4
SHEET 1 1604 1024
WIRE 688 448 416 448
WIRE 736 448 688 448
WIRE 864 448 816 448
WIRE 912 448 864 448
WIRE 1024 448 976 448
WIRE 1152 448 1024 448
WIRE 1280 448 1152 448
WIRE 416 464 416 448
WIRE 1152 464 1152 448
WIRE 1280 464 1280 448
WIRE 688 512 688 448
WIRE 1024 528 1024 448
WIRE 416 560 416 544
WIRE 1152 560 1152 528
WIRE 1280 560 1280 544
WIRE 864 592 864 448
WIRE 864 592 832 592
WIRE 544 608 528 608
WIRE 1024 656 1024 608
WIRE 1024 656 832 656
WIRE 1024 672 1024 656
WIRE 544 704 528 704
WIRE 848 720 832 720
WIRE 944 720 928 720
WIRE 944 736 944 720
WIRE 1024 768 1024 752
WIRE 608 816 608 800
WIRE 768 816 768 800
WIRE 944 816 944 800
FLAG 1024 768 0
FLAG 1152 560 0
FLAG 1280 560 0
FLAG 768 816 0
FLAG 608 816 0
FLAG 944 816 0
FLAG 416 560 0
FLAG 1280 448 OUT
FLAG 416 448 IN
SYMBOL POLCAP 1136 464 R0
SYMATTR InstName C1
SYMATTR Value 100µ
SYMATTR SpiceLine Rser=0.02
SYMBOL schottky 912 464 R270
WINDOW 0 32 32 VTop 2
WINDOW 3 0 32 VBottom 2
SYMATTR InstName D1
SYMATTR Value MBRS340
SYMBOL IND 720 464 R270
WINDOW 0 32 56 VTop 2
WINDOW 3 5 56 VBottom 2
SYMATTR InstName L1
SYMATTR Value 10µ
SYMATTR SpiceLine Rser=0.02 Rpar=5000
SYMBOL RES 832 736 R270
WINDOW 0 32 56 VTop 2
WINDOW 3 0 56 VBottom 2
SYMATTR InstName R1
SYMATTR Value 20K
SYMBOL RES 1008 512 R0
SYMATTR InstName R2
SYMATTR Value 315K
SYMBOL RES 1008 656 R0
SYMATTR InstName R3
SYMATTR Value 105K
SYMBOL CAP 928 736 R0
SYMATTR InstName C3
SYMATTR Value .01µ
SYMBOL VOLTAGE 416 448 R0
SYMATTR InstName V1
SYMATTR Value 2.5
SYMBOL POWERPRODUCTS\\LT1302 688 656 R0
SYMATTR InstName U1
SYMBOL RES 1264 448 R0
SYMATTR InstName R4
SYMATTR Value 10
TEXT 1056 864 Left 2 !.tran 1.5m startup
