Version 4
SHEET 1 1604 1024
WIRE 688 448 416 448
WIRE 752 448 688 448
WIRE 880 448 832 448
WIRE 928 448 880 448
WIRE 1040 448 992 448
WIRE 1104 448 1040 448
WIRE 416 464 416 448
WIRE 1104 464 1104 448
WIRE 688 512 688 448
WIRE 416 560 416 544
WIRE 1104 560 1104 544
WIRE 880 592 880 448
WIRE 880 592 832 592
WIRE 544 608 528 608
WIRE 1040 656 1040 448
WIRE 1040 656 832 656
WIRE 1040 672 1040 656
WIRE 544 704 528 704
WIRE 848 720 832 720
WIRE 944 720 928 720
WIRE 944 736 944 720
WIRE 1040 752 1040 736
WIRE 608 816 608 800
WIRE 768 816 768 800
WIRE 944 816 944 800
FLAG 1040 752 0
FLAG 1104 560 0
FLAG 768 816 0
FLAG 608 816 0
FLAG 944 816 0
FLAG 416 560 0
FLAG 1104 448 OUT
FLAG 416 448 IN
SYMBOL POLCAP 1024 672 R0
SYMATTR InstName C1
SYMATTR Value 100µ
SYMATTR SpiceLine Rser=0.02
SYMBOL schottky 928 464 R270
WINDOW 0 32 32 VTop 2
WINDOW 3 0 32 VBottom 2
SYMATTR InstName D1
SYMATTR Value MBRS340
SYMBOL IND 736 464 R270
WINDOW 0 32 56 VTop 2
WINDOW 3 5 56 VBottom 2
SYMATTR InstName L1
SYMATTR Value 10µ
SYMATTR SpiceLine Rser=0.02 Rpar=5000
SYMBOL RES 832 736 R270
WINDOW 0 32 56 VTop 2
WINDOW 3 0 56 VBottom 2
SYMATTR InstName R1
SYMATTR Value 20K
SYMBOL CAP 928 736 R0
SYMATTR InstName C3
SYMATTR Value .01µ
SYMBOL VOLTAGE 416 448 R0
SYMATTR InstName V1
SYMATTR Value 2.5
SYMBOL PowerProducts\\LT1302-5 688 656 R0
SYMATTR InstName U1
SYMBOL res 1088 448 R0
SYMATTR InstName Rload
SYMATTR Value 100
TEXT 920 872 Left 2 !.tran 1m startup
