Version 4
SHEET 1 2164 1364
WIRE 1344 672 1152 672
WIRE 1376 672 1344 672
WIRE 1504 672 1456 672
WIRE 1568 672 1504 672
WIRE 1680 672 1632 672
WIRE 1744 672 1680 672
WIRE 1856 672 1744 672
WIRE 1152 688 1152 672
WIRE 1744 688 1744 672
WIRE 1856 688 1856 672
WIRE 1344 720 1344 672
WIRE 1504 720 1504 672
WIRE 1152 784 1152 768
WIRE 1744 784 1744 752
WIRE 1856 784 1856 768
WIRE 1248 800 1232 800
WIRE 1680 800 1680 672
WIRE 1680 800 1600 800
WIRE 1248 896 1232 896
WIRE 1632 896 1600 896
WIRE 1728 896 1632 896
WIRE 1632 912 1632 896
WIRE 1728 912 1728 896
WIRE 1344 1008 1344 976
WIRE 1504 1008 1504 976
WIRE 1632 1008 1632 976
WIRE 1728 1008 1728 992
FLAG 1632 1008 0
FLAG 1856 784 0
FLAG 1744 784 0
FLAG 1728 1008 0
FLAG 1504 1008 0
FLAG 1344 1008 0
FLAG 1152 784 0
FLAG 1856 672 OUT
FLAG 1152 672 IN
SYMBOL POLCAP 1616 912 R0
SYMATTR InstName C1
SYMATTR Value 0.1µ
SYMBOL POLCAP 1728 688 R0
SYMATTR InstName C2
SYMATTR Value 1µ
SYMBOL SCHOTTKY 1568 688 R270
WINDOW 0 32 32 VTop 2
WINDOW 3 0 32 VBottom 2
SYMATTR InstName D1
SYMATTR Value MBRS130L
SYMBOL IND 1360 688 R270
WINDOW 0 32 56 VTop 2
WINDOW 3 5 56 VBottom 2
SYMATTR InstName L1
SYMATTR Value 10µ
SYMATTR SpiceLine Rser=0.02 Rpar=5000
SYMBOL RES 1712 896 R0
SYMATTR InstName R1
SYMATTR Value 1Meg
SYMBOL VOLTAGE 1152 672 R0
SYMATTR InstName V1
SYMATTR Value 5
SYMBOL RES 1840 672 R0
SYMATTR InstName Rload
SYMATTR Value 100
SYMBOL PowerProducts\\LT1309 1424 848 R0
SYMATTR InstName U1
TEXT 1752 1032 Left 2 !.tran 1m startup
