Version 4
SHEET 1 2708 1432
WIRE 1824 880 1584 880
WIRE 1888 880 1824 880
WIRE 2016 880 1968 880
WIRE 2064 880 2016 880
WIRE 2208 880 2128 880
WIRE 2320 880 2208 880
WIRE 2432 880 2320 880
WIRE 1584 896 1584 880
WIRE 2320 896 2320 880
WIRE 2432 896 2432 880
WIRE 1824 928 1824 880
WIRE 2208 928 2208 880
WIRE 1584 992 1584 976
WIRE 2016 992 2016 880
WIRE 2016 992 1968 992
WIRE 2320 992 2320 960
WIRE 2432 992 2432 976
WIRE 2208 1056 2208 1008
WIRE 2208 1056 1968 1056
WIRE 2208 1072 2208 1056
WIRE 1680 1088 1648 1088
WIRE 2016 1120 1968 1120
WIRE 2208 1168 2208 1152
WIRE 1984 1184 1968 1184
WIRE 2064 1184 2048 1184
WIRE 2160 1184 2144 1184
WIRE 1744 1264 1744 1248
WIRE 1904 1264 1904 1248
FLAG 1904 1264 0
FLAG 1584 992 0
FLAG 1744 1264 0
FLAG 2160 1184 0
FLAG 2432 992 0
FLAG 2320 992 0
FLAG 2208 1168 0
FLAG 2432 880 OUT
FLAG 1584 880 IN
SYMBOL VOLTAGE 1584 880 R0
SYMATTR InstName V1
SYMATTR Value 5
SYMBOL CAP 1984 1200 R270
WINDOW 0 32 32 VTop 2
WINDOW 3 0 32 VBottom 2
SYMATTR InstName C4
SYMATTR Value .05µ
SYMBOL polcap 2304 896 R0
SYMATTR InstName C2
SYMATTR Value 22µ
SYMATTR SpiceLine Rser=.05
SYMBOL RES 2048 1200 R270
WINDOW 0 32 56 VTop 2
WINDOW 3 0 56 VBottom 2
SYMATTR InstName R3
SYMATTR Value 5K
SYMBOL RES 2192 1056 R0
SYMATTR InstName R2
SYMATTR Value 24.9K
SYMBOL RES 2192 912 R0
SYMATTR InstName R1
SYMATTR Value 215K
SYMBOL schottky 2064 896 R270
WINDOW 0 32 32 VTop 2
WINDOW 3 0 32 VBottom 2
SYMATTR InstName D1
SYMATTR Value MBRS360
SYMBOL IND 1872 896 R270
WINDOW 0 32 56 VTop 2
WINDOW 3 5 56 VBottom 2
SYMATTR InstName L1
SYMATTR Value 22µ
SYMATTR SpiceLine Rser=0.02 Rpar=5000
SYMBOL PowerProducts\\LT1373HV 1824 1088 R0
SYMATTR InstName U1
SYMBOL RES 2416 880 R0
SYMATTR InstName R4
SYMATTR Value 50
TEXT 2200 1248 Left 2 !.tran 5m startup
