Version 4
SHEET 1 2352 2168
WIRE 1568 1616 1360 1616
WIRE 1728 1616 1568 1616
WIRE 1360 1632 1360 1616
WIRE 1568 1648 1568 1616
WIRE 1728 1648 1728 1616
WIRE 1360 1728 1360 1712
WIRE 1472 1728 1456 1728
WIRE 1856 1728 1824 1728
WIRE 1888 1728 1856 1728
WIRE 1968 1728 1888 1728
WIRE 2096 1728 2048 1728
WIRE 2192 1728 2096 1728
WIRE 1888 1744 1888 1728
WIRE 2192 1744 2192 1728
WIRE 1472 1792 1456 1792
WIRE 1856 1792 1856 1728
WIRE 1856 1792 1824 1792
WIRE 1888 1824 1888 1808
WIRE 2192 1840 2192 1824
WIRE 1216 1856 1168 1856
WIRE 1328 1856 1296 1856
WIRE 1472 1856 1328 1856
WIRE 2096 1856 2096 1728
WIRE 2096 1856 1824 1856
WIRE 2096 1872 2096 1856
WIRE 1168 1888 1168 1856
WIRE 1328 1888 1328 1856
WIRE 1472 1920 1408 1920
WIRE 1856 1920 1824 1920
WIRE 1408 1936 1408 1920
WIRE 2096 1952 2096 1936
WIRE 1168 1984 1168 1952
WIRE 1328 1984 1328 1952
WIRE 1408 2016 1408 2000
WIRE 1568 2016 1568 2000
WIRE 1728 2016 1728 2000
WIRE 1568 2096 1568 2080
FLAG 1168 1984 0
FLAG 1408 2016 0
FLAG 1568 2096 0
FLAG 1728 2016 0
FLAG 2192 1840 0
FLAG 2096 1952 0
FLAG 1360 1728 0
FLAG 1888 1824 0
FLAG 2192 1728 OUT
FLAG 1856 1920 0
FLAG 1328 1984 0
FLAG 1360 1616 IN
SYMBOL POWERPRODUCTS\\LTC1433 1648 1824 R0
SYMATTR InstName U1
SYMBOL cap 1552 2016 R0
SYMATTR InstName C1
SYMATTR Value 100p
SYMBOL cap 1392 1936 R0
SYMATTR InstName C2
SYMATTR Value .01µ
SYMBOL cap 1152 1888 R0
SYMATTR InstName C3
SYMATTR Value 6800p
SYMBOL cap 1312 1888 R0
SYMATTR InstName C4
SYMATTR Value 680p
SYMBOL ind 1952 1744 R270
WINDOW 0 32 56 VTop 2
WINDOW 3 5 56 VBottom 2
SYMATTR InstName L1
SYMATTR Value 100µ
SYMBOL RES 1312 1840 R90
WINDOW 0 0 56 VBottom 2
WINDOW 3 32 56 VTop 2
SYMATTR InstName R1
SYMATTR Value 5.1K
SYMBOL VOLTAGE 1360 1616 R0
SYMATTR InstName V1
SYMATTR Value 6
SYMBOL polcap 2080 1872 R0
SYMATTR InstName C5
SYMATTR Value 100µ
SYMBOL schottky 1872 1808 M180
WINDOW 0 37 60 Left 2
WINDOW 3 24 0 Left 2
SYMATTR InstName D1
SYMATTR Value 1N5818
SYMBOL res 2176 1728 R0
SYMATTR InstName Rload
SYMATTR Value 10
TEXT 1880 2000 Left 2 !.tran 10m startup
