Version 4
SHEET 1 1376 680
WIRE 112 112 16 112
WIRE 144 112 112 112
WIRE 512 112 432 112
WIRE 624 112 512 112
WIRE 16 128 16 112
WIRE 512 128 512 112
WIRE 624 128 624 112
WIRE 112 176 112 112
WIRE 144 176 112 176
WIRE 16 224 16 208
WIRE 512 224 512 192
WIRE 624 224 624 208
WIRE 288 240 288 208
FLAG 16 224 0
FLAG 288 240 0
FLAG 624 224 0
FLAG 512 224 0
SYMBOL voltage 16 112 R0
WINDOW 123 0 0 Left 2
WINDOW 39 0 0 Left 2
SYMATTR InstName V1
SYMATTR Value 5.8
SYMBOL current 624 128 R0
WINDOW 123 24 122 Left 2
WINDOW 39 24 101 Left 2
SYMATTR Value PULSE(0 10m 1.5m 10n 10n 2m 200m)
SYMATTR InstName I1
SYMBOL cap 496 128 R0
WINDOW 123 24 84 Left 2
SYMATTR InstName C1
SYMATTR Value 2µ
SYMBOL LT1461-3.3 288 144 R0
SYMATTR InstName U1
TEXT 720 272 Left 2 !.tran 7m
