Version 4
SHEET 1 2704 1608
WIRE 1600 1168 1504 1168
WIRE 1776 1168 1600 1168
WIRE 1504 1184 1504 1168
WIRE 1776 1200 1776 1168
WIRE 1600 1264 1600 1168
WIRE 1632 1264 1600 1264
WIRE 2000 1264 1920 1264
WIRE 2064 1264 2000 1264
WIRE 2176 1264 2144 1264
WIRE 2240 1264 2176 1264
WIRE 2352 1264 2240 1264
WIRE 1504 1280 1504 1264
WIRE 2240 1280 2240 1264
WIRE 2352 1280 2352 1264
WIRE 2000 1296 2000 1264
WIRE 1632 1344 1616 1344
WIRE 1936 1344 1920 1344
WIRE 2000 1376 2000 1360
WIRE 2240 1376 2240 1344
WIRE 2352 1376 2352 1360
WIRE 1632 1424 1616 1424
WIRE 2176 1424 2176 1264
WIRE 2176 1424 1920 1424
WIRE 1776 1504 1776 1488
FLAG 1504 1280 0
FLAG 2000 1376 0
FLAG 2240 1376 0
FLAG 2352 1376 0
FLAG 1776 1504 0
FLAG 2352 1264 OUT
FLAG 1504 1168 IN
SYMBOL VOLTAGE 1504 1168 R0
SYMATTR InstName V1
SYMATTR Value 10
SYMBOL ind 2048 1280 R270
WINDOW 0 32 56 VTop 2
WINDOW 3 5 56 VBottom 2
SYMATTR InstName L1
SYMATTR Value 100µ
SYMBOL schottky 1984 1360 M180
WINDOW 0 24 72 Left 2
WINDOW 3 24 0 Left 2
SYMATTR InstName D1
SYMATTR Value MBR0530L
SYMBOL polcap 2224 1280 R0
SYMATTR InstName C1
SYMATTR Value 100µ
SYMBOL PowerProducts\\LTC1474-3.3 1776 1344 R0
SYMATTR InstName U1
SYMBOL res 2336 1264 R0
SYMATTR InstName Rload
SYMATTR Value 25
TEXT 2008 1480 Left 2 !.tran 2m startup
