Version 4
SHEET 1 1884 2612
WIRE 1296 2208 1168 2208
WIRE 1440 2208 1296 2208
WIRE 1792 2208 1728 2208
WIRE 1168 2224 1168 2208
WIRE 1296 2224 1296 2208
WIRE 1792 2240 1792 2208
WIRE 1440 2272 1376 2272
WIRE 1744 2272 1728 2272
WIRE 1168 2320 1168 2304
WIRE 1296 2320 1296 2288
WIRE 1440 2336 1376 2336
WIRE 1792 2336 1792 2304
WIRE 1792 2336 1728 2336
WIRE 1440 2400 1232 2400
WIRE 1776 2400 1728 2400
WIRE 1232 2416 1232 2400
WIRE 1776 2416 1776 2400
WIRE 1776 2496 1776 2480
WIRE 1232 2512 1232 2496
FLAG 1232 2512 0
FLAG 1744 2272 0
FLAG 1296 2320 0
FLAG 1168 2320 0
FLAG 1776 2496 0
FLAG 1168 2208 OUT
FLAG 1232 2400 IN
SYMBOL cap 1776 2240 R0
SYMATTR InstName C1
SYMATTR Value 1µ
SYMBOL cap 1360 2272 R0
WINDOW 0 35 17 Left 2
WINDOW 3 37 48 Left 2
SYMATTR InstName C2
SYMATTR Value 1µ
SYMBOL cap 1280 2224 R0
SYMATTR InstName C3
SYMATTR Value 10µ
SYMBOL res 1152 2208 R0
SYMATTR InstName Rload
SYMATTR Value 18
SYMBOL cap 1760 2416 R0
SYMATTR InstName C4
SYMATTR Value 100p
SYMBOL PowerProducts\\LTC1503-2 1584 2304 R0
SYMATTR InstName U1
SYMBOL voltage 1232 2400 R0
SYMATTR InstName V1
SYMATTR Value PWL(0 6 5m 2.4)
TEXT 1576 2552 Left 2 !.tran 5m
