Version 4
SHEET 1 2224 1840
WIRE 1328 1280 1136 1280
WIRE 1392 1280 1328 1280
WIRE 1520 1280 1472 1280
WIRE 1136 1296 1136 1280
WIRE 1328 1328 1328 1280
WIRE 1520 1328 1520 1280
WIRE 1136 1392 1136 1376
WIRE 1264 1424 1248 1424
WIRE 1616 1424 1584 1424
WIRE 1728 1424 1696 1424
WIRE 1808 1424 1728 1424
WIRE 1808 1440 1808 1424
WIRE 1168 1520 1136 1520
WIRE 1264 1520 1248 1520
WIRE 1728 1520 1728 1424
WIRE 1728 1520 1584 1520
WIRE 1728 1536 1728 1520
WIRE 1808 1536 1808 1520
WIRE 1136 1552 1136 1520
WIRE 1728 1616 1728 1600
WIRE 1136 1632 1136 1616
WIRE 1312 1632 1312 1616
WIRE 1536 1632 1536 1616
WIRE 1312 1712 1312 1696
FLAG 1136 1392 0
FLAG 1536 1632 0
FLAG 1312 1712 0
FLAG 1728 1616 0
FLAG 1136 1632 0
FLAG 1808 1536 0
FLAG 1808 1424 OUT
FLAG 1136 1280 IN
SYMBOL VOLTAGE 1136 1280 R0
SYMATTR InstName V1
SYMATTR Value 5
SYMBOL ind 1600 1440 R270
WINDOW 0 32 56 VTop 2
WINDOW 3 5 56 VBottom 2
SYMATTR InstName L1
SYMATTR Value 50µ
SYMBOL polcap 1712 1536 R0
SYMATTR InstName C1
SYMATTR Value 100µ
SYMATTR SpiceLine Rser=.1
SYMBOL cap 1296 1632 R0
WINDOW 3 24 57 Left 2
SYMATTR Value .01µ
SYMATTR InstName C2
SYMBOL res 1376 1296 R270
WINDOW 0 32 56 VTop 2
WINDOW 3 0 56 VBottom 2
SYMATTR InstName R1
SYMATTR Value 47K
SYMBOL cap 1120 1552 R0
SYMATTR InstName C3
SYMATTR Value 5000p
SYMBOL res 1264 1504 R90
WINDOW 0 0 56 VBottom 2
WINDOW 3 32 56 VTop 2
SYMATTR InstName R2
SYMATTR Value 5K
SYMBOL PowerProducts\\LTC1504A-3.3 1424 1472 R0
SYMATTR InstName U1
SYMBOL res 1792 1424 R0
SYMATTR InstName Rload
SYMATTR Value 50
TEXT 1560 1696 Left 2 !.tran 5m startup
