Version 4
SHEET 1 896 680
WIRE 208 -48 -240 -48
WIRE -368 -16 -368 -32
WIRE -240 16 -240 -48
WIRE -208 16 -240 16
WIRE 160 16 144 16
WIRE -368 80 -368 64
WIRE -240 80 -240 16
WIRE -208 80 -240 80
WIRE 160 80 144 80
WIRE -208 144 -464 144
WIRE 160 144 144 144
WIRE -464 160 -464 144
WIRE -208 208 -224 208
WIRE 208 208 208 -48
WIRE 208 208 144 208
WIRE -464 256 -464 240
FLAG -368 80 0
FLAG -368 -32 +V
FLAG 160 16 +V
FLAG -224 208 0
FLAG -464 256 0
SYMBOL voltage -368 -32 R0
SYMATTR InstName V1
SYMATTR Value 5
SYMBOL opamps\\LTC1541 -32 112 R0
SYMATTR InstName U1
SYMBOL voltage -464 144 R0
SYMATTR InstName V2
SYMATTR Value sine(1.2 1 1K)
TEXT 112 320 Left 2 !.tran 3m
