Version 4
SHEET 1 940 2376
WIRE 240 1632 -32 1632
WIRE 560 1632 240 1632
WIRE -32 1648 -32 1632
WIRE 240 1680 240 1632
WIRE 256 1680 240 1680
WIRE 560 1680 560 1632
WIRE 560 1680 544 1680
WIRE -32 1744 -32 1728
WIRE 256 1760 32 1760
WIRE 576 1760 544 1760
WIRE 608 1760 576 1760
WIRE 704 1760 688 1760
WIRE 32 1840 32 1760
WIRE 160 1840 32 1840
WIRE 256 1840 240 1840
WIRE 560 1840 544 1840
WIRE 704 1840 704 1760
WIRE 704 1840 640 1840
WIRE -64 1920 -144 1920
WIRE 32 1920 32 1840
WIRE 32 1920 16 1920
WIRE 48 1920 32 1920
WIRE 144 1920 128 1920
WIRE 256 1920 144 1920
WIRE 704 1920 704 1840
WIRE 704 1920 544 1920
WIRE -144 1936 -144 1920
WIRE 256 2000 240 2000
WIRE 704 2000 704 1920
WIRE -144 2032 -144 2016
WIRE 256 2080 240 2080
WIRE 560 2080 544 2080
WIRE 144 2128 144 1920
WIRE 704 2128 704 2080
WIRE 704 2128 144 2128
FLAG -32 1744 0
FLAG 240 2080 0
FLAG 560 2080 0
FLAG 176 2000 0
FLAG -144 2032 0
FLAG 576 1760 OUT
FLAG -144 1920 IN
SYMBOL VOLTAGE -32 1632 R0
SYMATTR InstName V2
SYMATTR Value 3.3
SYMBOL cap 240 1984 R90
WINDOW 0 0 32 VBottom 2
WINDOW 3 32 32 VTop 2
SYMATTR InstName C1
SYMATTR Value .1µ
SYMBOL res 256 1824 R90
WINDOW 0 0 56 VBottom 2
WINDOW 3 32 56 VTop 2
SYMATTR InstName R1
SYMATTR Value 10K
SYMBOL res 144 1904 R90
WINDOW 0 0 56 VBottom 2
WINDOW 3 32 56 VTop 2
SYMATTR InstName R2
SYMATTR Value 10K
SYMBOL VOLTAGE -144 1920 R0
SYMATTR InstName V1
SYMATTR Value 1.66 ac 1
SYMBOL res 544 1824 M90
WINDOW 0 0 56 VBottom 2
WINDOW 3 32 56 VTop 2
SYMATTR InstName R3
SYMATTR Value 10K
SYMBOL res 592 1744 M90
WINDOW 0 0 56 VBottom 2
WINDOW 3 32 56 VTop 2
SYMATTR InstName R4
SYMATTR Value 10K
SYMBOL res 32 1904 R90
WINDOW 0 0 56 VBottom 2
WINDOW 3 32 56 VTop 2
SYMATTR InstName R5
SYMATTR Value 10K
SYMBOL res 688 1984 R0
SYMATTR InstName R6
SYMATTR Value 10K
SYMBOL FilterProducts\\LTC1563-3 400 2016 R0
SYMATTR InstName U1
TEXT 512 2160 Left 2 !.ac oct 10 1 100Meg
