Version 4
SHEET 1 1492 912
WIRE 464 528 352 528
WIRE 624 528 464 528
WIRE 352 544 352 528
WIRE 624 544 624 528
WIRE 464 608 464 528
WIRE 496 608 464 608
WIRE 784 608 752 608
WIRE 896 608 864 608
WIRE 976 608 896 608
WIRE 976 624 976 608
WIRE 352 640 352 624
WIRE 464 672 464 608
WIRE 496 672 464 672
WIRE 896 672 896 608
WIRE 896 672 752 672
WIRE 896 688 896 672
WIRE 976 720 976 704
WIRE 624 768 624 736
WIRE 896 768 896 752
FLAG 976 608 OUT
FLAG 896 768 0
FLAG 976 720 0
FLAG 624 768 0
FLAG 352 640 0
FLAG 352 528 IN
SYMBOL VOLTAGE 352 528 R0
SYMATTR InstName V1
SYMATTR Value 9
SYMBOL IND 768 624 R270
WINDOW 0 32 56 VTop 2
WINDOW 3 5 56 VBottom 2
SYMATTR InstName L1
SYMATTR Value 100µ
SYMATTR SpiceLine Rser=0.02 Rpar=5000
SYMBOL POLCAP 880 688 R0
SYMATTR InstName C2
SYMATTR Value 100µ
SYMATTR SpiceLine Rser=0.02
SYMBOL PowerProducts\\LTC1574-3.3 624 624 R0
SYMATTR InstName U1
SYMBOL res 960 608 R0
SYMATTR InstName Rload
SYMATTR Value 10
TEXT 792 824 Left 2 !.tran 3m startup
