Version 4
SHEET 1 2524 1536
WIRE 1632 1072 1504 1072
WIRE 1840 1072 1632 1072
WIRE 1504 1088 1504 1072
WIRE 1840 1104 1840 1072
WIRE 1632 1168 1632 1072
WIRE 1680 1168 1632 1168
WIRE 2016 1168 2000 1168
WIRE 2112 1168 2080 1168
WIRE 2176 1168 2112 1168
WIRE 2336 1168 2256 1168
WIRE 1504 1184 1504 1168
WIRE 1680 1248 1648 1248
WIRE 2112 1248 2112 1168
WIRE 2112 1248 2000 1248
WIRE 2176 1248 2160 1248
WIRE 2272 1248 2240 1248
WIRE 1568 1328 1504 1328
WIRE 1680 1328 1648 1328
WIRE 2032 1328 2000 1328
WIRE 2160 1328 2160 1248
WIRE 2160 1328 2032 1328
WIRE 2176 1328 2160 1328
WIRE 2272 1328 2272 1248
WIRE 2272 1328 2256 1328
WIRE 2336 1328 2336 1168
WIRE 2336 1328 2272 1328
WIRE 2432 1328 2336 1328
WIRE 1504 1344 1504 1328
WIRE 2032 1344 2032 1328
WIRE 2336 1344 2336 1328
WIRE 2432 1344 2432 1328
WIRE 1840 1408 1840 1392
WIRE 1504 1424 1504 1408
WIRE 2032 1440 2032 1424
WIRE 2336 1440 2336 1408
WIRE 2432 1440 2432 1424
FLAG 1504 1184 0
FLAG 1840 1408 0
FLAG 1504 1424 0
FLAG 2336 1440 0
FLAG 2032 1440 0
FLAG 2432 1440 0
FLAG 2432 1328 OUT
FLAG 1504 1072 IN
SYMBOL POWERPRODUCTS\\LT1612 1840 1248 R0
SYMATTR InstName U1
SYMBOL cap 2016 1184 R270
WINDOW 0 32 32 VTop 2
WINDOW 3 0 32 VBottom 2
WINDOW 38 0 32 VBottom 2
WINDOW 39 0 32 VBottom 2
WINDOW 40 0 32 VBottom 2
WINDOW 123 0 32 VBottom 2
SYMATTR InstName C1
SYMATTR Value .1µ
SYMBOL ind 2160 1184 R270
WINDOW 0 32 56 VTop 2
WINDOW 3 5 56 VBottom 2
SYMATTR InstName L1
SYMATTR Value 10µ
SYMBOL VOLTAGE 1504 1072 R0
SYMATTR InstName V1
SYMATTR Value 2
SYMBOL RES 1664 1312 R90
WINDOW 0 0 56 VBottom 2
WINDOW 3 32 56 VTop 2
WINDOW 38 32 56 VTop 2
WINDOW 39 32 56 VTop 2
WINDOW 40 32 56 VTop 2
WINDOW 123 32 56 VTop 2
SYMATTR InstName R1
SYMATTR Value 33.2K
SYMBOL cap 1488 1344 R0
SYMATTR InstName C2
SYMATTR Value 330p
SYMBOL res 2272 1312 R90
WINDOW 0 0 56 VBottom 2
WINDOW 3 32 56 VTop 2
SYMATTR InstName R2
SYMATTR Value 215K
SYMBOL res 2016 1440 M180
WINDOW 0 36 76 Left 2
WINDOW 3 36 40 Left 2
SYMATTR InstName R3
SYMATTR Value 232K
SYMBOL cap 2240 1232 R90
WINDOW 0 0 32 VBottom 2
WINDOW 3 32 32 VTop 2
SYMATTR InstName C3
SYMATTR Value 100p
SYMBOL res 2416 1440 M180
WINDOW 0 36 76 Left 2
WINDOW 3 36 40 Left 2
SYMATTR InstName Rload
SYMATTR Value 10
SYMBOL polcap 2320 1344 R0
SYMATTR InstName C5
SYMATTR Value 68µ
TEXT 2216 1480 Left 2 !.tran .5m startup
