Version 4
SHEET 1 880 680
WIRE 0 48 -208 48
WIRE 16 48 0 48
WIRE 320 48 304 48
WIRE 384 48 320 48
WIRE 560 48 384 48
WIRE -208 64 -208 48
WIRE 384 64 384 48
WIRE 560 64 560 48
WIRE 0 144 0 48
WIRE 16 144 0 144
WIRE 320 144 320 48
WIRE 320 144 304 144
WIRE -208 160 -208 144
WIRE 384 160 384 128
WIRE 560 160 560 144
WIRE 160 240 160 208
FLAG -208 160 0
FLAG 384 160 0
FLAG 560 160 0
FLAG 160 240 0
FLAG -208 48 IN
FLAG 560 48 OUT
SYMBOL voltage -208 48 R0
SYMATTR InstName V1
SYMATTR Value PWL(0 0 1 10)
SYMBOL cap 368 64 R0
WINDOW 39 24 84 Left 2
SYMATTR SpiceLine Rser=100m
SYMATTR InstName C1
SYMATTR Value 10u
SYMBOL res 544 48 R0
SYMATTR InstName Rload
SYMATTR Value 500
SYMBOL PowerProducts\\LT1764-1.5 160 96 R0
SYMATTR InstName U1
TEXT 376 216 Left 2 !.tran 1
