Version 4
SHEET 1 880 680
WIRE 0 48 -224 48
WIRE 16 48 0 48
WIRE 320 48 304 48
WIRE 384 48 320 48
WIRE 512 48 384 48
WIRE -224 64 -224 48
WIRE 384 64 384 48
WIRE 512 64 512 48
WIRE 0 144 0 48
WIRE 16 144 0 144
WIRE 320 144 320 48
WIRE 320 144 304 144
WIRE -224 160 -224 144
WIRE 384 160 384 128
WIRE 512 160 512 144
WIRE 160 240 160 208
FLAG -224 160 0
FLAG 384 160 0
FLAG 512 160 0
FLAG 160 240 0
FLAG -224 48 IN
FLAG 512 48 OUT
SYMBOL voltage -224 48 R0
SYMATTR InstName V1
SYMATTR Value PWL(0 0 1 10)
SYMBOL cap 368 64 R0
WINDOW 39 24 84 Left 2
SYMATTR InstName C1
SYMATTR Value 10µ
SYMATTR SpiceLine Rser=.1
SYMBOL res 496 48 R0
SYMATTR InstName Rload
SYMATTR Value 500
SYMBOL PowerProducts\\LT1764A-1.8 160 96 R0
SYMATTR InstName U1
TEXT 360 248 Left 2 !.tran 1
