Version 4
SHEET 1 880 680
WIRE 16 48 -208 48
WIRE 32 48 16 48
WIRE 400 48 320 48
WIRE 496 48 400 48
WIRE -208 64 -208 48
WIRE 400 64 400 48
WIRE 496 64 496 48
WIRE 16 144 16 48
WIRE 32 144 16 144
WIRE 336 144 320 144
WIRE -208 160 -208 144
WIRE 400 160 400 128
WIRE 496 160 496 144
WIRE 176 240 176 208
FLAG -208 160 0
FLAG 400 160 0
FLAG 496 160 0
FLAG 176 240 0
FLAG 496 48 OUT
FLAG -208 48 IN
SYMBOL voltage -208 48 R0
SYMATTR InstName V1
SYMATTR Value PWL(0 0 1 -10)
SYMBOL cap 384 64 R0
SYMATTR InstName C1
SYMATTR Value 1µ
SYMBOL res 480 48 R0
SYMATTR InstName Rload
SYMATTR Value 1K
SYMBOL PowerProducts\\LT1964-5 176 96 R0
SYMATTR InstName U1
TEXT 384 216 Left 2 !.tran 1
