Version 4
SHEET 1 1124 680
WIRE 48 112 -144 112
WIRE 64 112 48 112
WIRE 384 112 352 112
WIRE 448 112 384 112
WIRE 560 112 448 112
WIRE -144 128 -144 112
WIRE 448 128 448 112
WIRE 560 128 560 112
WIRE -144 224 -144 208
WIRE 448 224 448 192
WIRE 560 224 560 208
WIRE 48 240 48 112
WIRE 64 240 48 240
WIRE 384 240 384 112
WIRE 384 240 352 240
WIRE 208 320 208 304
FLAG 208 320 0
FLAG -144 224 0
FLAG 448 224 0
FLAG 560 224 0
FLAG -144 112 IN
FLAG 560 112 OUT
SYMBOL cap 432 128 R0
SYMATTR InstName C1
SYMATTR Value 10µ
SYMBOL voltage -144 112 R0
SYMATTR InstName V1
SYMATTR Value pwl(0 0 1 5)
SYMBOL res 544 112 R0
SYMATTR InstName Rload
SYMATTR Value 3.3
SYMBOL PowerProducts\\LT1965-3.3 208 176 R0
SYMATTR InstName U1
TEXT 400 296 Left 2 !.tran 1 startup
