Version 4
SHEET 1 880 680
WIRE 0 160 -96 160
WIRE 16 160 0 160
WIRE 400 160 272 160
WIRE 480 160 400 160
WIRE -96 176 -96 160
WIRE 400 176 400 160
WIRE 480 176 480 160
WIRE 0 240 0 160
WIRE 16 240 0 240
WIRE 304 240 272 240
WIRE -96 272 -96 256
WIRE 400 272 400 240
WIRE 480 272 480 256
WIRE 16 320 0 320
WIRE 304 320 304 304
WIRE 304 320 272 320
FLAG 400 272 0
FLAG 480 272 0
FLAG 0 320 0
FLAG -96 272 0
FLAG 480 160 OUT
FLAG -96 160 IN
SYMBOL cap 288 240 R0
SYMATTR InstName C1
SYMATTR Value 2.2µ
SYMBOL cap 384 176 R0
SYMATTR InstName C2
SYMATTR Value 2.2µ
SYMBOL res 464 160 R0
SYMATTR InstName Rload
SYMATTR Value 100
SYMBOL voltage -96 160 R0
WINDOW 123 0 0 Left 2
WINDOW 39 0 0 Left 2
SYMATTR InstName V1
SYMATTR Value 3.6
SYMBOL PowerProducts\\LTC3204B-5 144 240 R0
SYMATTR InstName U1
TEXT 344 368 Left 2 !.tran 1m startup
