Version 4
SHEET 1 880 680
WIRE 48 -32 -80 -32
WIRE 480 -32 48 -32
WIRE -80 -16 -80 -32
WIRE 480 -16 480 -32
WIRE -80 80 -80 64
WIRE 48 80 48 -32
WIRE 96 80 48 80
WIRE 480 80 480 64
WIRE 480 80 384 80
WIRE 48 160 48 80
WIRE 96 160 48 160
WIRE 416 160 384 160
WIRE 528 160 496 160
WIRE 640 160 528 160
WIRE 752 160 640 160
WIRE 640 176 640 160
WIRE 752 176 752 160
WIRE 48 256 48 160
WIRE 96 256 48 256
WIRE 528 256 528 240
WIRE 528 256 384 256
WIRE 528 272 528 256
WIRE 640 272 640 240
WIRE 752 272 752 256
WIRE -16 352 -32 352
WIRE 96 352 64 352
WIRE 416 352 384 352
WIRE 528 368 528 352
WIRE 240 416 240 400
FLAG 528 368 0
FLAG -80 80 0
FLAG 640 272 0
FLAG 752 272 0
FLAG -32 352 0
FLAG 240 416 0
FLAG 416 352 0
FLAG 752 160 OUT
FLAG -80 -32 IN
SYMBOL LTC3374A 240 208 R0
SYMATTR InstName U1
SYMBOL voltage -80 -32 R0
SYMATTR InstName V1
SYMATTR Value 5
SYMBOL res 464 -32 R0
SYMATTR InstName R1
SYMATTR Value 100K
SYMBOL ind 400 176 R270
WINDOW 0 32 56 VTop 2
WINDOW 3 5 56 VBottom 2
SYMATTR InstName L1
SYMATTR Value 2.2µ
SYMATTR SpiceLine Rser=20m
SYMBOL cap 624 176 R0
WINDOW 0 29 15 Left 2
SYMATTR InstName C1
SYMATTR Value 16µ
SYMATTR SpiceLine Rser=2m
SYMBOL res 512 144 R0
SYMATTR InstName R2
SYMATTR Value 590K
SYMBOL res 512 256 R0
SYMATTR InstName R3
SYMATTR Value 475K
SYMBOL res 736 160 R0
SYMATTR InstName Rload
SYMATTR Value 2
SYMBOL res 80 336 R90
WINDOW 0 0 56 VBottom 2
WINDOW 3 32 56 VTop 2
SYMATTR InstName R4
SYMATTR Value 402K
TEXT 632 384 Left 2 !.tran 2m startup
