Version 4
SHEET 1 1048 820
WIRE 192 64 80 64
WIRE 352 64 192 64
WIRE 80 80 80 64
WIRE 352 80 352 64
WIRE 192 144 192 64
WIRE 208 144 192 144
WIRE 512 144 496 144
WIRE 608 144 592 144
WIRE 656 144 608 144
WIRE 752 144 656 144
WIRE 656 160 656 144
WIRE 752 160 752 144
WIRE 80 176 80 160
WIRE 656 256 656 224
WIRE 752 256 752 240
WIRE 208 304 192 304
WIRE 608 304 608 144
WIRE 608 304 496 304
WIRE 352 384 352 368
FLAG 80 176 0
FLAG 352 384 0
FLAG 656 256 0
FLAG 752 256 0
FLAG 752 144 OUT
FLAG 192 304 0
FLAG 80 64 IN
SYMBOL VOLTAGE 80 64 R0
SYMATTR InstName V1
SYMATTR Value 5
SYMBOL polcap 640 160 R0
SYMATTR InstName C2
SYMATTR Value 22µ
SYMBOL ind 496 160 R270
WINDOW 0 32 56 VTop 2
WINDOW 3 5 56 VBottom 2
SYMATTR InstName L1
SYMATTR Value 4.7µ
SYMBOL res 736 144 R0
SYMATTR InstName Rload
SYMATTR Value 10
SYMBOL PowerProducts\\LTC3405A-1.5 352 224 R0
SYMATTR InstName U1
TEXT 576 368 Left 2 !.tran 500u startup
