Version 4
SHEET 1 1048 724
WIRE 192 48 80 48
WIRE 352 48 192 48
WIRE 80 64 80 48
WIRE 352 80 352 48
WIRE 192 144 192 48
WIRE 208 144 192 144
WIRE 512 144 496 144
WIRE 608 144 592 144
WIRE 656 144 608 144
WIRE 736 144 656 144
WIRE 80 160 80 144
WIRE 656 160 656 144
WIRE 736 160 736 144
WIRE 656 256 656 224
WIRE 736 256 736 240
WIRE 208 304 192 304
WIRE 608 304 608 144
WIRE 608 304 496 304
WIRE 352 384 352 368
FLAG 80 160 0
FLAG 352 384 0
FLAG 656 256 0
FLAG 736 256 0
FLAG 736 144 OUT
FLAG 192 304 0
FLAG 80 48 IN
SYMBOL VOLTAGE 80 48 R0
SYMATTR InstName V1
SYMATTR Value 5
SYMBOL polcap 640 160 R0
SYMATTR InstName C2
SYMATTR Value 22µ
SYMBOL ind 496 160 R270
WINDOW 0 32 56 VTop 2
WINDOW 3 5 56 VBottom 2
SYMATTR InstName L1
SYMATTR Value 4.7µ
SYMBOL res 720 144 R0
SYMATTR InstName Rload
SYMATTR Value 10
SYMBOL PowerProducts\\LTC3405A-1.375 352 224 R0
SYMATTR InstName U1
TEXT 576 368 Left 2 !.tran 500u startup
