Version 4
SHEET 1 984 700
WIRE 192 64 64 64
WIRE 352 64 192 64
WIRE 64 80 64 64
WIRE 352 80 352 64
WIRE 192 144 192 64
WIRE 208 144 192 144
WIRE 512 144 496 144
WIRE 624 144 592 144
WIRE 672 144 624 144
WIRE 768 144 672 144
WIRE 672 160 672 144
WIRE 768 160 768 144
WIRE 64 176 64 160
WIRE 672 256 672 224
WIRE 768 256 768 240
WIRE 624 304 624 144
WIRE 624 304 496 304
WIRE 352 384 352 368
FLAG 64 176 0
FLAG 352 384 0
FLAG 672 256 0
FLAG 768 256 0
FLAG 768 144 OUT
FLAG 64 64 IN
SYMBOL VOLTAGE 64 64 R0
SYMATTR InstName V1
SYMATTR Value 5
SYMBOL polcap 656 160 R0
SYMATTR InstName C1
SYMATTR Value 22µ
SYMBOL ind 496 160 R270
WINDOW 0 32 56 VTop 2
WINDOW 3 5 56 VBottom 2
SYMATTR InstName L1
SYMATTR Value 4.7µ
SYMBOL RES 752 144 R0
SYMATTR InstName Rload
SYMATTR Value 10
SYMBOL PowerProducts\\LTC3406-1.8 352 224 R0
SYMATTR InstName U1
TEXT 576 352 Left 2 !.tran 500u startup
