Version 4
SHEET 1 2496 1664
WIRE 1536 1232 1440 1232
WIRE 1568 1232 1536 1232
WIRE 1680 1232 1648 1232
WIRE 1936 1232 1840 1232
WIRE 2048 1232 1936 1232
WIRE 1440 1248 1440 1232
WIRE 1936 1248 1936 1232
WIRE 1680 1280 1680 1232
WIRE 1840 1280 1840 1232
WIRE 1936 1328 1936 1312
WIRE 2048 1328 2048 1232
WIRE 1440 1360 1440 1328
WIRE 1536 1360 1536 1232
WIRE 1616 1360 1536 1360
WIRE 1536 1488 1536 1360
WIRE 1616 1488 1536 1488
WIRE 2048 1488 2048 1392
WIRE 2048 1488 1904 1488
WIRE 2048 1504 2048 1488
WIRE 1760 1584 1760 1568
WIRE 2048 1600 2048 1584
FLAG 1760 1584 0
FLAG 1440 1360 0
FLAG 1936 1328 0
FLAG 2048 1600 0
FLAG 1440 1232 IN
SYMBOL ind 1552 1248 R270
WINDOW 0 32 56 VTop 2
WINDOW 3 5 56 VBottom 2
SYMATTR InstName L1
SYMATTR Value 22µ
SYMBOL VOLTAGE 1440 1232 R0
WINDOW 0 22 20 Left 2
SYMATTR InstName V1
SYMATTR Value 5
SYMBOL cap 1920 1248 R0
SYMATTR InstName C1
SYMATTR Value .22µ
SYMBOL res 2032 1488 R0
SYMATTR InstName R1
SYMATTR Value 10
SYMBOL LED 2032 1328 R0
WINDOW 123 24 85 Left 2
SYMATTR InstName D1
SYMATTR Value NSPW500BS
SYMATTR Description Diode
SYMATTR Type diode
SYMATTR Value2 N=4
SYMBOL PowerProducts\\LT3465A 1760 1424 R0
SYMATTR InstName U1
TEXT 1776 1648 Left 2 !.tran 100u startup
