Version 4
SHEET 1 1060 700
WIRE 272 48 -240 48
WIRE 352 48 272 48
WIRE 432 48 352 48
WIRE -240 64 -240 48
WIRE 272 80 272 48
WIRE 352 80 352 48
WIRE 432 80 432 48
WIRE 16 144 -128 144
WIRE 96 144 16 144
WIRE 112 144 96 144
WIRE 208 144 192 144
WIRE 512 144 496 144
WIRE 608 144 592 144
WIRE 672 144 608 144
WIRE 768 144 672 144
WIRE -240 160 -240 144
WIRE -128 160 -128 144
WIRE 16 160 16 144
WIRE 672 160 672 144
WIRE 768 160 768 144
WIRE -128 256 -128 240
WIRE 16 256 16 224
WIRE 672 256 672 224
WIRE 768 256 768 240
WIRE 96 288 96 144
WIRE 208 288 96 288
WIRE 608 288 608 144
WIRE 608 288 496 288
WIRE 352 352 352 336
FLAG -240 160 0
FLAG 352 352 0
FLAG -240 48 IN
FLAG 16 256 0
FLAG -128 256 0
FLAG 672 256 0
FLAG 768 256 0
FLAG 768 144 OUT1
FLAG -128 144 OUT2
SYMBOL VOLTAGE -240 48 R0
SYMATTR InstName V1
SYMATTR Value 5
SYMBOL polcap 0 160 R0
SYMATTR InstName C1
SYMATTR Value 4.7µ
SYMBOL ind 208 160 M270
WINDOW 0 32 56 VTop 2
WINDOW 3 5 56 VBottom 2
SYMATTR InstName L1
SYMATTR Value 4.7µ
SYMBOL res -144 144 R0
SYMATTR InstName Rload2
SYMATTR Value 4
SYMBOL polcap 656 160 R0
SYMATTR InstName C2
SYMATTR Value 4.7µ
SYMBOL ind 496 160 R270
WINDOW 0 32 56 VTop 2
WINDOW 3 5 56 VBottom 2
SYMATTR InstName L2
SYMATTR Value 4.7µ
SYMBOL res 752 144 R0
SYMATTR InstName Rload1
SYMATTR Value 6
SYMBOL PowerProducts\\LTC3547-1 352 208 R0
SYMATTR InstName U1
TEXT 544 328 Left 2 !.tran 800u startup
