Version 4
SHEET 1 2732 1928
WIRE -816 -384 -896 -384
WIRE -592 -384 -816 -384
WIRE 64 -384 -592 -384
WIRE 976 -384 64 -384
WIRE 1216 -384 976 -384
WIRE -896 -368 -896 -384
WIRE -224 -336 -416 -336
WIRE -144 -336 -224 -336
WIRE -48 -336 -80 -336
WIRE 496 -336 464 -336
WIRE 640 -336 560 -336
WIRE 832 -336 640 -336
WIRE 208 -304 208 -320
WIRE -416 -288 -416 -336
WIRE 832 -288 832 -336
WIRE -896 -272 -896 -288
WIRE -592 -256 -592 -384
WIRE 976 -256 976 -384
WIRE -224 -240 -224 -336
WIRE 640 -240 640 -336
WIRE -48 -224 -48 -336
WIRE 208 -224 208 -240
WIRE 208 -224 -48 -224
WIRE 464 -224 464 -336
WIRE 464 -224 208 -224
WIRE -352 -176 -544 -176
WIRE -48 -176 -48 -224
WIRE -48 -176 -96 -176
WIRE 64 -176 64 -384
WIRE 208 -176 208 -224
WIRE 352 -176 352 -192
WIRE 464 -176 464 -224
WIRE 512 -176 464 -176
WIRE 928 -176 768 -176
WIRE -912 -112 -992 -112
WIRE -880 -112 -912 -112
WIRE -784 -112 -880 -112
WIRE -768 -112 -784 -112
WIRE -656 -112 -688 -112
WIRE -592 -112 -592 -160
WIRE -592 -112 -656 -112
WIRE -416 -112 -416 -224
WIRE -416 -112 -592 -112
WIRE -48 -112 -48 -176
WIRE 0 -112 -48 -112
WIRE 464 -112 464 -176
WIRE 464 -112 416 -112
WIRE 832 -112 832 -224
WIRE 976 -112 976 -160
WIRE 976 -112 832 -112
WIRE 1056 -112 976 -112
WIRE 1088 -112 1056 -112
WIRE 1184 -112 1168 -112
WIRE 1248 -112 1184 -112
WIRE 1312 -112 1248 -112
WIRE 1360 -112 1312 -112
WIRE -992 -96 -992 -112
WIRE -880 -96 -880 -112
WIRE -592 -96 -592 -112
WIRE -416 -96 -416 -112
WIRE -352 -96 -416 -96
WIRE -48 -96 -48 -112
WIRE -48 -96 -96 -96
WIRE 464 -96 464 -112
WIRE 512 -96 464 -96
WIRE 832 -96 832 -112
WIRE 832 -96 768 -96
WIRE 976 -96 976 -112
WIRE 1248 -96 1248 -112
WIRE 1360 -96 1360 -112
WIRE -352 -16 -544 -16
WIRE 0 -16 -96 -16
WIRE 512 -16 416 -16
WIRE 928 -16 768 -16
WIRE -992 0 -992 -16
WIRE -880 0 -880 -32
WIRE 1248 0 1248 -32
WIRE 1360 0 1360 -16
WIRE -592 16 -592 0
WIRE 976 16 976 0
WIRE -224 64 -224 48
WIRE 640 64 640 48
WIRE -656 80 -656 -112
WIRE -544 80 -656 80
WIRE -400 80 -464 80
WIRE 0 80 -400 80
WIRE 832 80 416 80
WIRE 896 80 832 80
WIRE 1056 80 1056 -112
WIRE 1056 80 976 80
WIRE -400 96 -400 80
WIRE 832 96 832 80
WIRE -784 176 -784 -112
WIRE -400 176 -400 160
WIRE -400 176 -784 176
WIRE 0 176 -400 176
WIRE 832 176 832 160
WIRE 832 176 416 176
WIRE 1184 176 1184 -112
WIRE 1184 176 832 176
WIRE -784 272 -784 176
WIRE 0 272 -784 272
WIRE 1184 272 1184 176
WIRE 1184 272 416 272
WIRE 448 368 416 368
WIRE -32 400 -976 400
WIRE 1376 400 448 400
WIRE -112 464 -128 464
WIRE -32 464 -32 400
WIRE -32 464 -48 464
WIRE 0 464 -32 464
WIRE 448 464 448 400
WIRE 448 464 416 464
WIRE 464 464 448 464
WIRE 544 464 528 464
WIRE -304 512 -304 496
WIRE 720 512 720 496
WIRE 0 560 -96 560
WIRE -304 608 -304 592
WIRE -96 608 -96 560
WIRE -96 608 -304 608
WIRE 720 608 720 592
WIRE 816 608 720 608
WIRE -304 624 -304 608
WIRE 720 624 720 608
WIRE -96 656 -160 656
WIRE 0 656 -96 656
WIRE 512 656 416 656
WIRE 544 656 512 656
WIRE -304 736 -304 704
WIRE 64 736 64 720
WIRE 64 736 -304 736
WIRE 720 736 720 704
WIRE 720 736 64 736
WIRE -304 752 -304 736
WIRE -160 752 -160 656
WIRE 256 752 256 720
WIRE 304 752 256 752
WIRE 352 752 352 720
WIRE 816 752 816 608
WIRE 816 752 352 752
WIRE 256 768 256 752
WIRE 544 768 544 656
WIRE 80 784 64 784
WIRE 160 784 160 720
WIRE 160 784 144 784
WIRE -304 832 -304 816
WIRE -160 864 -160 832
WIRE 160 864 160 784
WIRE 160 864 -160 864
WIRE 256 864 256 848
WIRE 256 864 160 864
WIRE 544 864 544 848
WIRE 544 864 256 864
WIRE -816 880 -816 -384
WIRE -704 880 -816 880
WIRE 16 880 -704 880
WIRE 1216 880 1216 -384
WIRE 1216 880 1088 880
WIRE -320 928 -336 928
WIRE -128 928 -256 928
WIRE 112 928 -128 928
WIRE 544 928 112 928
WIRE 16 960 16 880
WIRE 112 960 112 928
WIRE 304 960 304 752
WIRE 400 960 400 944
WIRE -336 992 -528 992
WIRE -256 992 -336 992
WIRE -160 992 -192 992
WIRE 608 992 576 992
WIRE 752 992 672 992
WIRE 944 992 752 992
WIRE -96 1024 -96 656
WIRE -48 1024 -96 1024
WIRE 512 1024 512 656
WIRE 512 1024 464 1024
WIRE -528 1040 -528 992
WIRE 944 1040 944 992
WIRE -704 1072 -704 880
WIRE 1088 1072 1088 880
WIRE -336 1088 -336 992
WIRE 752 1088 752 992
WIRE -48 1120 -64 1120
WIRE 480 1120 464 1120
WIRE -464 1152 -656 1152
WIRE -160 1152 -160 992
WIRE -160 1152 -208 1152
WIRE 576 1152 576 992
WIRE 624 1152 576 1152
WIRE 1040 1152 880 1152
WIRE -912 1216 -912 -112
WIRE -880 1216 -912 1216
WIRE -768 1216 -800 1216
WIRE -704 1216 -704 1168
WIRE -704 1216 -768 1216
WIRE -528 1216 -528 1104
WIRE -528 1216 -704 1216
WIRE -160 1216 -160 1152
WIRE -128 1216 -128 928
WIRE -128 1216 -160 1216
WIRE -48 1216 -128 1216
WIRE 544 1216 544 928
WIRE 544 1216 464 1216
WIRE 576 1216 576 1152
WIRE 576 1216 544 1216
WIRE 944 1216 944 1104
WIRE 1088 1216 1088 1168
WIRE 1088 1216 944 1216
WIRE 1168 1216 1088 1216
WIRE 1200 1216 1168 1216
WIRE 1312 1216 1312 -112
WIRE 1312 1216 1280 1216
WIRE -704 1232 -704 1216
WIRE -528 1232 -528 1216
WIRE -464 1232 -528 1232
WIRE -160 1232 -160 1216
WIRE -160 1232 -208 1232
WIRE 576 1232 576 1216
WIRE 624 1232 576 1232
WIRE 944 1232 944 1216
WIRE 944 1232 880 1232
WIRE 1088 1232 1088 1216
WIRE -464 1312 -656 1312
WIRE -48 1312 -208 1312
WIRE 624 1312 464 1312
WIRE 1040 1312 880 1312
WIRE -704 1344 -704 1328
WIRE 1088 1344 1088 1328
WIRE -336 1392 -336 1376
WIRE 752 1392 752 1376
WIRE -768 1408 -768 1216
WIRE -672 1408 -768 1408
WIRE -528 1408 -592 1408
WIRE -48 1408 -528 1408
WIRE 944 1408 464 1408
WIRE 1008 1408 944 1408
WIRE 1168 1408 1168 1216
WIRE 1168 1408 1088 1408
WIRE -528 1424 -528 1408
WIRE 944 1424 944 1408
WIRE -912 1504 -912 1216
WIRE -528 1504 -528 1488
WIRE -528 1504 -912 1504
WIRE -48 1504 -528 1504
WIRE 944 1504 944 1488
WIRE 944 1504 464 1504
WIRE 1312 1504 1312 1216
WIRE 1312 1504 944 1504
WIRE -976 1600 -976 400
WIRE -48 1600 -976 1600
WIRE 1376 1600 1376 400
WIRE 1376 1600 464 1600
WIRE -96 1696 -96 1024
WIRE -48 1696 -96 1696
WIRE 512 1696 512 1024
WIRE 512 1696 464 1696
WIRE 64 1776 64 1760
WIRE 208 1776 208 1760
WIRE 352 1808 352 1760
WIRE 544 1808 544 1216
WIRE 544 1808 352 1808
WIRE 64 1872 64 1856
FLAG 352 -192 0
FLAG -592 16 0
FLAG -128 464 0
FLAG -880 0 0
FLAG -992 0 0
FLAG -992 -112 OUT1
FLAG -896 -384 IN
FLAG -896 -272 0
FLAG -304 496 0
FLAG 720 496 0
FLAG 544 464 0
FLAG 976 16 0
FLAG 1248 0 0
FLAG 1360 0 0
FLAG 1360 -112 OUT0
FLAG 448 368 0
FLAG -304 832 0
FLAG 64 784 0
FLAG 208 -320 0
FLAG -224 64 0
FLAG 640 64 0
FLAG 400 944 0
FLAG 480 1120 0
FLAG -64 1120 0
FLAG 208 1776 0
FLAG -336 928 0
FLAG 1088 1344 0
FLAG 752 1392 0
FLAG 64 1872 0
FLAG -704 1344 0
FLAG -336 1392 0
SYMBOL voltage -896 -384 R0
SYMATTR InstName V1
SYMATTR Value 12
SYMBOL nmos -544 -256 M0
WINDOW 0 -24 6 Left 2
WINDOW 3 -119 101 Left 2
SYMATTR InstName Q1
SYMATTR Value RJK0305DPB
SYMBOL nmos -544 -96 M0
WINDOW 0 2 6 Right 2
WINDOW 3 25 107 Right 2
SYMATTR InstName Q2
SYMATTR Value RJK0301DPB
SYMBOL ind 1072 -96 R270
WINDOW 0 32 56 VTop 2
WINDOW 3 5 56 VBottom 2
SYMATTR InstName L1
SYMATTR Value .56µ
SYMATTR SpiceLine Rser=1.61m
SYMBOL cap 816 96 R0
SYMATTR InstName C3
SYMATTR Value .22µ
SYMBOL res 992 96 M270
WINDOW 0 32 56 VTop 2
WINDOW 3 0 56 VBottom 2
SYMATTR InstName R1
SYMATTR Value 1.58K
SYMBOL cap -48 448 R90
WINDOW 0 0 32 VBottom 2
WINDOW 3 32 32 VTop 2
WINDOW 39 54 90 VTop 2
SYMATTR InstName C4
SYMATTR Value 2200p
SYMATTR SpiceLine Rser=6.04K Cpar=220p
SYMBOL cap -896 -96 R0
WINDOW 123 24 81 Left 2
SYMATTR Value2 X2
SYMATTR InstName C5
SYMATTR Value 530µ
SYMATTR SpiceLine Rser=5m
SYMBOL res -1008 -112 R0
SYMATTR InstName R2
SYMATTR Value .0825
SYMBOL res -320 608 R0
SYMATTR InstName R3
SYMATTR Value 10K
SYMBOL res -320 496 R0
SYMATTR InstName R4
SYMATTR Value 15.8k
SYMBOL res 240 752 R0
SYMATTR InstName R6
SYMATTR Value 4.99K
SYMBOL res 704 608 R0
SYMATTR InstName R9
SYMATTR Value 30.1K
SYMBOL res 704 496 R0
SYMATTR InstName R10
SYMATTR Value 3.57K
SYMBOL cap 464 448 M90
WINDOW 0 0 32 VBottom 2
WINDOW 3 32 32 VTop 2
WINDOW 39 54 90 VTop 2
SYMATTR InstName C6
SYMATTR Value 4700p
SYMATTR SpiceLine Rser=4.99K Cpar=220p
SYMBOL nmos 928 -256 R0
SYMATTR InstName Q3
SYMATTR Value RJK0305DPB
SYMBOL nmos 928 -96 R0
WINDOW 0 88 8 Right 2
WINDOW 3 199 91 Right 2
SYMATTR InstName Q4
SYMATTR Value RJK0301DPB
SYMBOL ind -672 -96 M270
WINDOW 0 32 56 VTop 2
WINDOW 3 5 56 VBottom 2
SYMATTR InstName L2
SYMATTR Value 1µ
SYMATTR SpiceLine Rser=2.3m
SYMBOL cap 816 -288 R0
SYMATTR InstName C7
SYMATTR Value .1µ
SYMBOL schottky 496 -320 R270
WINDOW 3 -4 37 VBottom 2
WINDOW 0 32 32 VTop 2
SYMATTR Value CMDSH2-3
SYMATTR InstName D2
SYMATTR Description Diode
SYMATTR Type diode
SYMBOL cap -416 96 R0
SYMATTR InstName C8
SYMATTR Value .22µ
SYMBOL res -560 96 R270
WINDOW 0 32 56 VTop 2
WINDOW 3 0 56 VBottom 2
SYMATTR InstName R11
SYMATTR Value 2K
SYMBOL cap 1232 -96 R0
WINDOW 123 23 81 Left 2
SYMATTR Value2 X2
SYMATTR InstName C9
SYMATTR Value 530µ
SYMATTR SpiceLine Rser=5m
SYMBOL res 1344 -112 R0
SYMATTR InstName R12
SYMATTR Value .045
SYMBOL res 528 864 M180
WINDOW 0 36 76 Left 2
WINDOW 3 36 40 Left 2
SYMATTR InstName R13
SYMATTR Value 10K
SYMBOL cap -320 752 R0
SYMATTR InstName C10
SYMATTR Value 1µ
SYMBOL cap 144 768 R90
WINDOW 0 0 32 VBottom 2
WINDOW 3 32 32 VTop 2
SYMATTR InstName C11
SYMATTR Value 1µ
SYMBOL PowerProducts\\LTC3887-1 208 272 R0
SYMATTR InstName U1
SYMATTR SpiceLine VIN_ON=5.5 VIN_OFF=5 Vout_0=1.8 Vout_1=2.5 Ilim0_range=1 Ilim1_range=1 OC_limit0=1 OC_limit1=1 Mode_ll=2 Fault_response=0 Retry_delay=.1m
SYMBOL cap 192 -304 R0
SYMATTR InstName C12
SYMATTR Value 1µ
SYMBOL PowerProducts\\LTC4449 640 -96 R0
SYMATTR InstName U2
SYMBOL cap -432 -288 R0
SYMATTR InstName C1
SYMATTR Value .1µ
SYMBOL schottky -80 -320 M270
WINDOW 3 -4 37 VBottom 2
WINDOW 0 32 32 VTop 2
SYMATTR Value CMDSH2-3
SYMATTR InstName D1
SYMATTR Description Diode
SYMATTR Type diode
SYMBOL PowerProducts\\LTC4449 -224 -96 M0
SYMATTR InstName U3
SYMBOL PowerProducts\\LTC3870-1 208 1360 R0
SYMATTR InstName U4
SYMBOL cap -256 912 R90
WINDOW 0 0 32 VBottom 2
WINDOW 3 32 32 VTop 2
SYMATTR InstName C2
SYMATTR Value 1µ
SYMBOL res -176 736 R0
SYMATTR InstName R7
SYMATTR Value 10K
SYMBOL ind 1184 1232 R270
WINDOW 0 32 56 VTop 2
WINDOW 3 5 56 VBottom 2
SYMATTR InstName L3
SYMATTR Value .56µ
SYMATTR SpiceLine Rser=1.61m
SYMBOL cap 928 1424 R0
SYMATTR InstName C13
SYMATTR Value .22µ
SYMBOL res 1104 1424 M270
WINDOW 0 32 56 VTop 2
WINDOW 3 0 56 VBottom 2
SYMATTR InstName R5
SYMATTR Value 1.58K
SYMBOL nmos 1040 1072 R0
SYMATTR InstName Q5
SYMATTR Value RJK0305DPB
SYMBOL nmos 1040 1232 R0
WINDOW 0 88 8 Right 2
WINDOW 3 199 91 Right 2
SYMATTR InstName Q6
SYMATTR Value RJK0301DPB
SYMBOL cap 928 1040 R0
SYMATTR InstName C14
SYMATTR Value .1µ
SYMBOL schottky 608 1008 R270
WINDOW 3 -4 37 VBottom 2
WINDOW 0 32 32 VTop 2
SYMATTR Value CMDSH2-3
SYMATTR InstName D3
SYMATTR Description Diode
SYMATTR Type diode
SYMBOL PowerProducts\\LTC4449 752 1232 R0
SYMATTR InstName U5
SYMBOL res 48 1760 R0
SYMATTR InstName R8
SYMATTR Value 100K
SYMBOL nmos -656 1072 M0
WINDOW 0 -24 6 Left 2
WINDOW 3 -119 101 Left 2
SYMATTR InstName Q7
SYMATTR Value RJK0305DPB
SYMBOL nmos -656 1232 M0
WINDOW 0 2 6 Right 2
WINDOW 3 25 107 Right 2
SYMATTR InstName Q8
SYMATTR Value RJK0301DPB
SYMBOL ind -784 1232 M270
WINDOW 0 32 56 VTop 2
WINDOW 3 5 56 VBottom 2
SYMATTR InstName L4
SYMATTR Value 1µ
SYMATTR SpiceLine Rser=2.3m
SYMBOL cap -544 1424 R0
SYMATTR InstName C15
SYMATTR Value .22µ
SYMBOL res -688 1424 R270
WINDOW 0 32 56 VTop 2
WINDOW 3 0 56 VBottom 2
SYMATTR InstName R14
SYMATTR Value 2K
SYMBOL cap -544 1040 R0
SYMATTR InstName C16
SYMATTR Value .1µ
SYMBOL schottky -192 1008 M270
WINDOW 3 -4 37 VBottom 2
WINDOW 0 32 32 VTop 2
SYMATTR Value CMDSH2-3
SYMATTR InstName D4
SYMATTR Description Diode
SYMATTR Type diode
SYMBOL PowerProducts\\LTC4449 -336 1232 M0
SYMATTR InstName U6
TEXT 664 1784 Left 2 !.tran 1.1m startup
TEXT 1472 -344 Left 2 ;Please read the following notes carefully, since the model presents different user interface\nthan the real part.\n \n(1) All PMBus communication and memory address related functions and pins are not modeled. \n \n(2) Changes to parameter values during simulation run will not have any effect, unless the\nsimulation is stopped and restarted. This is different from the operation of the part, which will\n respond to the commanded changes while running. \n \n(3) Share_clk is not modeled. The default time reference of LTspice is used as the common time \nbase for all time related parameters.\n \n(4) The following parameters can be defined, by right-clicking the symbol of LTC3887. Different \nnomenclature from the datasheet is adopted here. If any value of these parameters are set beyond \nthe scope discribed in the datasheet, the resulting simulation outcomes are not meaningful.\n \n     VIN_ON & VIN_OFF -- in volts, set the unit start/stop input voltages;\n     Freq -- in Hz, sets switching frequency as one of values of 250K, 350K, \n                425K, 500K, 575K, 650K, 750K, 1000K. FREQ_CFG pin needs to float \n                (or short to VDD25), to make the value be in effect;\n     PHs_0 & PHs_1 -- in degree,  set phase angle related to SYNC signal. \n                Certain combinations are restricted as in datasheet. FREQ_CFG \n                pin needs to float (or short to VDD25), to make the value be in effect;\n     Ton0_delay & Ton0_rise; Ton1_delay & Ton1_rise -- in sec, set delay and soft-start timers for \n                channel0 and channel1. Initialization time is not modeled;\n     Toff0_delay & Toff0_fall; Toff1_delay & Toff1_fall -- in sec, set delay and soft-off timers for \n                channel0 and channel1;\n     Vout_0 & Vout_1 -- in volt, set output voltages respectively;\n     Vout0_range & Vout1_range -- set maximum output range, with value 0\n                                                      5.5V; value 1 for 2.75V\n     Ilim0_range & Ilim1_range -- set maximum sensed peak current range, with value 0\n                           for low 50mV, and 1 for high 75mV;\n     OC_limit0 & OC_limit1 -- set ratio of peak current limit to the maximum value defined\n                      by Ilimit_range. It must be one of values: 0.5, 0.572, 0.642, \n                      0.714, 0.786, 0.858, 0.928, 1;\n     Mode_II -- sets light load operation mode: 0 for discontinuous, 2 for forced continuous;\n     Fault_response -- sets the response mode of the unit to occuring faults:\n                                 0 for ignore, 1 for latch up, 2 for Hiccup after Retry_delay time;\n     Retry_delay -- in sec, sets the timer before the unit turns on after a fault;
