Version 4
SHEET 1 948 1284
WIRE 0 272 -384 272
WIRE 352 272 256 272
WIRE -384 288 -384 272
WIRE 352 336 352 272
WIRE 352 336 256 336
WIRE -384 384 -384 368
WIRE 352 400 352 336
WIRE 352 400 256 400
WIRE 128 464 128 448
WIRE 352 480 352 400
WIRE 432 480 352 480
WIRE 432 496 432 480
WIRE 0 576 -384 576
WIRE 352 576 352 480
WIRE 352 576 256 576
WIRE -384 592 -384 576
WIRE 432 592 432 576
WIRE 352 640 352 576
WIRE 352 640 256 640
WIRE -384 688 -384 672
WIRE 352 704 352 640
WIRE 352 704 256 704
WIRE 128 768 128 752
FLAG 128 464 0
FLAG -384 384 0
FLAG 128 768 0
FLAG -384 688 0
FLAG 432 592 0
SYMBOL voltage -384 272 R0
WINDOW 123 0 0 Left 2
WINDOW 39 0 0 Left 2
SYMATTR Value PWL(0 12 50m 0 100m 12)
SYMATTR InstName V1
SYMBOL voltage -384 576 R0
WINDOW 123 0 0 Left 2
WINDOW 39 0 0 Left 2
SYMATTR Value PWL(0 0 50m 12 100m 0)
SYMATTR InstName V2
SYMBOL LTC4358 128 336 R0
SYMATTR InstName U1
SYMBOL LTC4358 128 640 R0
SYMATTR InstName U2
SYMBOL res 416 480 R0
SYMATTR InstName Rload
SYMATTR Value 2
TEXT 472 768 Left 2 !.tran 100m
