Version 4
SHEET 1 880 680
WIRE 256 0 -16 0
WIRE 384 0 352 0
WIRE 448 0 384 0
WIRE 544 0 448 0
WIRE 448 16 448 0
WIRE 544 16 544 0
WIRE -16 112 -16 0
WIRE -16 112 -128 112
WIRE 16 112 -16 112
WIRE 384 112 384 0
WIRE 384 112 272 112
WIRE 448 112 448 80
WIRE 544 112 544 96
WIRE -128 128 -128 112
WIRE 16 192 -16 192
WIRE 336 192 336 48
WIRE 336 192 272 192
WIRE -128 224 -128 208
WIRE 16 272 -16 272
WIRE 288 272 272 272
WIRE 416 272 368 272
WIRE 416 288 416 272
WIRE 416 384 416 368
FLAG -16 192 0
FLAG -128 224 0
FLAG -16 272 0
FLAG 448 112 0
FLAG 544 112 0
FLAG 416 384 0
SYMBOL voltage -128 112 R0
WINDOW 0 17 15 Left 2
WINDOW 3 21 97 Left 2
WINDOW 123 0 0 Left 2
WINDOW 39 0 0 Left 2
SYMATTR InstName V1
SYMATTR Value 5
SYMBOL cap 432 16 R0
SYMATTR InstName C1
SYMATTR Value 4.7µ
SYMBOL res 528 0 R0
SYMATTR InstName R1
SYMATTR Value 2
SYMBOL res 272 288 R270
WINDOW 0 32 56 VTop 2
WINDOW 3 0 56 VBottom 2
SYMATTR InstName R2
SYMATTR Value 470K
SYMBOL voltage 416 272 R0
WINDOW 123 0 0 Left 2
WINDOW 39 0 0 Left 2
SYMATTR InstName V2
SYMATTR Value 5
SYMBOL LTC4414 144 192 R0
SYMATTR InstName U1
SYMBOL pmos 256 48 R270
WINDOW 0 52 48 VTop 2
WINDOW 3 -14 72 VLeft 2
SYMATTR InstName Q1
SYMATTR Value FDR840P
TEXT 40 336 Left 2 !.tran 100m startup
