Version 4
SHEET 1 1708 680
WIRE 64 -480 64 -496
WIRE -64 -432 -112 -432
WIRE 32 -432 -64 -432
WIRE 240 -400 176 -400
WIRE 272 -400 240 -400
WIRE 384 -400 352 -400
WIRE 464 -400 384 -400
WIRE 592 -400 544 -400
WIRE 32 -368 0 -368
WIRE 240 -368 240 -400
WIRE -320 -352 -320 -368
WIRE -208 -352 -208 -368
WIRE 64 -304 64 -320
WIRE -320 -256 -320 -272
WIRE -208 -256 -208 -272
WIRE 0 -256 0 -368
WIRE 240 -256 240 -288
WIRE 240 -256 0 -256
WIRE 240 -240 240 -256
WIRE 448 -240 448 -256
WIRE -112 -192 -112 -432
WIRE 384 -192 384 -400
WIRE 416 -192 384 -192
WIRE 592 -160 592 -400
WIRE 592 -160 560 -160
WIRE 624 -160 592 -160
WIRE 160 -144 144 -144
WIRE 240 -144 240 -160
WIRE 240 -144 224 -144
WIRE 240 -128 240 -144
WIRE 416 -128 384 -128
WIRE 448 -64 448 -80
WIRE 240 -32 240 -48
WIRE 240 -32 0 -32
WIRE 240 0 240 -32
WIRE 64 32 64 16
WIRE 0 80 0 -32
WIRE 32 80 0 80
WIRE 240 112 240 80
WIRE 240 112 176 112
WIRE 272 112 240 112
WIRE 384 112 384 -128
WIRE 384 112 352 112
WIRE 416 112 384 112
WIRE 528 112 496 112
WIRE -112 144 -112 -112
WIRE -64 144 -112 144
WIRE 32 144 -64 144
WIRE -112 192 -112 144
WIRE 64 208 64 192
FLAG -208 -256 0
FLAG 64 16 +V
FLAG -208 -368 +V
FLAG 64 208 -V
FLAG -320 -256 0
FLAG -320 -368 -V
FLAG 448 -256 +V
FLAG 448 -64 -V
FLAG 64 -304 +V
FLAG 64 -496 -V
FLAG 528 112 0
FLAG 144 -144 0
FLAG -112 192 0
FLAG 624 -160 OUT
FLAG -64 144 IN+
FLAG -64 -432 IN-
SYMBOL voltage -208 -368 R0
SYMATTR InstName V1
SYMATTR Value 5
SYMBOL voltage -320 -368 R0
SYMATTR InstName V2
SYMATTR Value -5
SYMBOL opamps\\LT6200-10 64 112 R0
SYMATTR InstName U1
SYMBOL res 560 -416 R90
WINDOW 0 0 56 VBottom 2
WINDOW 3 32 56 VTop 2
SYMATTR InstName R3
SYMATTR Value 1K
SYMBOL res 368 -416 R90
WINDOW 0 0 56 VBottom 2
WINDOW 3 32 56 VTop 2
SYMATTR InstName R4
SYMATTR Value 100
SYMBOL opamps\\LT6200-10 448 -160 R0
SYMATTR InstName U2
SYMBOL res 224 -384 R0
SYMATTR InstName R5
SYMATTR Value 604
SYMBOL res 224 -256 R0
SYMATTR InstName R6
SYMATTR Value 49.9
SYMBOL opamps\\LT6200-10 64 -400 M180
WINDOW 0 67 45 Left 2
WINDOW 3 32 -59 Left 2
SYMATTR InstName U3
SYMBOL res 512 96 R90
WINDOW 0 0 56 VBottom 2
WINDOW 3 32 56 VTop 2
SYMATTR InstName R7
SYMATTR Value 1K
SYMBOL res 368 96 R90
WINDOW 0 0 56 VBottom 2
WINDOW 3 32 56 VTop 2
SYMATTR InstName R8
SYMATTR Value 100
SYMBOL res 224 -144 R0
SYMATTR InstName R2
SYMATTR Value 49.9
SYMBOL cap 224 -160 R90
WINDOW 0 0 32 VBottom 2
WINDOW 3 32 32 VTop 2
SYMATTR InstName C1
SYMATTR Value 150p
SYMBOL voltage -112 -208 R0
SYMATTR InstName V3
SYMATTR Value AC 1
SYMBOL res 224 -16 R0
SYMATTR InstName R1
SYMATTR Value 604
TEXT 480 0 Left 2 !.ac oct 10 1Meg 200Meg
TEXT 240 -544 Bottom 2 ;Rail-to-Rail High Speed Low Noise instrumentation Amplifier
