Version 4
SHEET 1 2592 1424
WIRE 464 -16 464 -32
WIRE 336 64 320 64
WIRE 656 64 592 64
WIRE 336 128 80 128
WIRE 656 128 592 128
WIRE -160 144 -160 128
WIRE -48 144 -48 128
WIRE 80 144 80 128
WIRE -160 240 -160 224
WIRE -48 240 -48 224
WIRE 80 240 80 224
WIRE 400 240 400 224
WIRE 464 240 464 224
WIRE 512 272 512 224
WIRE 512 352 512 336
FLAG -160 240 0
FLAG -48 240 0
FLAG -160 128 +V
FLAG -48 128 -V
FLAG 464 -32 +V
FLAG 464 240 -V
FLAG 400 240 +V
FLAG 80 240 0
FLAG 80 128 IN
FLAG 656 64 +OUT
FLAG 656 128 -OUT
FLAG 320 64 0
FLAG 512 352 0
SYMBOL voltage -160 128 R0
WINDOW 123 0 0 Left 2
WINDOW 39 0 0 Left 2
SYMATTR InstName V1
SYMATTR Value 6
SYMBOL voltage -48 128 R0
WINDOW 123 0 0 Left 2
WINDOW 39 0 0 Left 2
SYMATTR InstName V2
SYMATTR Value -1
SYMBOL voltage 80 128 R0
WINDOW 123 24 124 Left 2
WINDOW 39 0 0 Left 2
SYMATTR InstName V3
SYMATTR Value SINE(0 500m 250K)
SYMBOL cap 496 272 R0
SYMATTR InstName C1
SYMATTR Value .1µ
SYMBOL LTC6363-.5 464 96 R0
SYMATTR InstName U1
TEXT 640 336 Left 2 !.tran 20u
