Version 4
SHEET 1 2592 1424
WIRE 464 -16 464 -48
WIRE 336 64 256 64
WIRE 624 64 592 64
WIRE 336 128 64 128
WIRE 624 128 592 128
WIRE -176 144 -176 128
WIRE -64 144 -64 128
WIRE 64 144 64 128
WIRE -176 240 -176 224
WIRE -64 240 -64 224
WIRE 64 240 64 224
WIRE 400 240 400 224
WIRE 464 240 464 224
WIRE 512 272 512 224
WIRE 512 352 512 336
FLAG -176 240 0
FLAG -64 240 0
FLAG -176 128 +V
FLAG -64 128 -V
FLAG 464 -48 +V
FLAG 464 240 -V
FLAG 400 240 +V
FLAG 64 240 0
FLAG 64 128 IN
FLAG 624 64 +OUT
FLAG 624 128 -OUT
FLAG 256 64 0
FLAG 512 352 0
SYMBOL voltage -176 128 R0
WINDOW 123 0 0 Left 2
WINDOW 39 0 0 Left 2
SYMATTR InstName V1
SYMATTR Value 6
SYMBOL voltage -64 128 R0
WINDOW 123 0 0 Left 2
WINDOW 39 0 0 Left 2
SYMATTR InstName V2
SYMATTR Value -1
SYMBOL LTC6363-1 464 96 R0
SYMATTR InstName U1
SYMBOL voltage 64 128 R0
WINDOW 123 24 124 Left 2
WINDOW 39 0 0 Left 2
SYMATTR InstName V3
SYMATTR Value SINE(0 500m 250K)
SYMBOL cap 496 272 R0
SYMATTR InstName C1
SYMATTR Value .1µ
TEXT 640 336 Left 2 !.tran 20u
