Version 4
SHEET 1 980 1876
WIRE 416 0 224 0
WIRE 224 16 224 0
WIRE -304 32 -304 16
WIRE -160 32 -160 16
WIRE 224 112 224 96
WIRE -304 128 -304 112
WIRE -160 128 -160 112
WIRE 416 160 416 0
WIRE 480 160 416 160
WIRE 352 176 352 128
WIRE 288 192 -112 192
WIRE 416 192 416 160
WIRE 480 224 480 160
WIRE 288 240 240 240
WIRE 240 272 240 240
WIRE 288 272 240 272
WIRE 640 304 576 304
WIRE -112 320 -112 192
WIRE 288 336 240 336
WIRE 240 368 240 336
WIRE 288 368 240 368
WIRE -112 416 -112 400
WIRE 288 416 224 416
WIRE 480 416 480 384
WIRE 416 432 416 416
WIRE 352 464 352 432
FLAG -304 128 0
FLAG -160 128 0
FLAG -304 16 +V
FLAG -160 16 -V
FLAG 352 128 +V
FLAG 352 464 -V
FLAG 640 304 OUT
FLAG 416 432 0
FLAG 480 416 0
FLAG 224 112 0
FLAG 224 416 0
FLAG -112 416 0
SYMBOL voltage -304 16 R0
SYMATTR InstName V1
SYMATTR Value 15
SYMBOL voltage -160 16 R0
SYMATTR InstName V2
SYMATTR Value -15
SYMBOL voltage 224 0 R0
SYMATTR InstName V5
SYMATTR Value 5
SYMBOL LT6372-0.2 432 304 R0
SYMATTR InstName U1
SYMBOL voltage -112 304 R0
WINDOW 123 0 0 Left 0
WINDOW 39 0 0 Left 0
SYMATTR InstName V4
SYMATTR Value SINE(0 10 1K)
TEXT 360 576 Left 2 !.tran 10m
