Version 4
SHEET 1 4212 1120
WIRE 2304 256 1840 256
WIRE 2304 272 2304 256
WIRE 2608 288 2352 288
WIRE 2720 288 2688 288
WIRE 2368 336 2352 336
WIRE 1840 384 1840 256
WIRE 1840 384 1760 384
WIRE 1872 384 1840 384
WIRE 2176 384 2096 384
WIRE 2304 384 2304 352
WIRE 2304 384 2176 384
WIRE 2400 384 2304 384
WIRE 1760 400 1760 384
WIRE 2176 400 2176 384
WIRE 2304 416 2304 384
WIRE 2608 432 2352 432
WIRE 2720 432 2688 432
WIRE 2368 480 2352 480
WIRE 1760 496 1760 480
WIRE 1984 496 1984 448
WIRE 2176 496 2176 464
WIRE 2304 528 2304 496
FLAG 1984 496 0
FLAG 2400 384 OUT
FLAG 1760 384 IN
FLAG 1760 496 0
FLAG 2176 496 0
FLAG 2304 528 0
FLAG 2368 480 0
FLAG 2720 432 0
FLAG 2368 336 0
FLAG 2720 288 0
SYMBOL voltage 1760 384 R0
WINDOW 123 0 0 Left 2
WINDOW 39 0 0 Left 2
SYMATTR InstName V1
SYMATTR Value 2.5
SYMBOL cap 2160 400 R0
SYMATTR InstName C1
SYMATTR Value 1µ
SYMBOL sw 2304 512 R180
WINDOW 0 -17 107 Right 2
WINDOW 3 -12 13 Right 2
SYMATTR InstName S1
SYMATTR Value 5mA
SYMBOL voltage 2592 432 R270
WINDOW 123 -74 56 VBottom 2
WINDOW 39 -53 56 VBottom 2
WINDOW 0 32 56 VTop 2
WINDOW 3 -32 56 VBottom 2
SYMATTR InstName V2
SYMATTR Value PULSE(0 1 600u 10n 10n 200u 10m)
SYMBOL sw 2304 368 R180
WINDOW 0 -14 106 Right 2
WINDOW 3 -11 9 Right 2
SYMATTR InstName S2
SYMATTR Value 5mA
SYMBOL voltage 2592 288 M90
WINDOW 123 74 56 VTop 2
WINDOW 39 53 56 VTop 2
WINDOW 3 32 56 VTop 2
WINDOW 0 -32 56 VBottom 2
SYMATTR Value PULSE(0 1 100u 10n 10n 200u 10m)
SYMATTR InstName V3
SYMBOL LT6654-2.048 1984 384 R0
SYMATTR InstName U1
TEXT 2168 608 Left 2 !.tran 1m\n.model 5mA SW(Ron=10 Roff=1Meg Vt=.5 Vh=-.1 Ilimit=5m level=2)
TEXT 1992 248 Bottom 2 ;Turn on and off 5mA of sink current\nand then on and off 5mA of source current
