Version 4
SHEET 1 1464 1048
WIRE 16 -32 -64 -32
WIRE 128 -32 16 -32
WIRE 224 -32 128 -32
WIRE 320 -32 224 -32
WIRE -64 -16 -64 -32
WIRE 128 0 128 -32
WIRE 224 0 224 -32
WIRE 320 0 320 -32
WIRE 448 64 416 64
WIRE 528 64 448 64
WIRE -64 80 -64 64
WIRE 528 80 528 64
WIRE 448 144 448 64
WIRE 448 144 416 144
WIRE 528 160 528 144
WIRE 16 192 16 -32
WIRE 48 192 16 192
WIRE 448 224 416 224
WIRE 528 224 448 224
WIRE 528 240 528 224
WIRE 448 304 448 224
WIRE 448 304 416 304
WIRE 448 320 448 304
WIRE 528 336 528 320
WIRE 224 400 224 384
WIRE 320 400 320 384
WIRE 448 400 448 384
WIRE 128 416 128 384
WIRE 224 480 224 464
WIRE 320 480 320 464
FLAG 128 416 0
FLAG 224 480 0
FLAG 448 400 0
FLAG -64 80 0
FLAG 528 336 0
FLAG 320 480 0
FLAG 528 160 0
FLAG -64 -32 IN
FLAG 528 64 OUT2
FLAG 528 224 OUT1
SYMBOL LT6658 224 192 R0
SYMATTR InstName U1
SYMBOL cap 208 400 R0
SYMATTR InstName C1
SYMATTR Value 1µ
SYMBOL cap 432 320 R0
WINDOW 39 24 84 Left 2
WINDOW 40 24 112 Left 2
SYMATTR InstName C2
SYMATTR Value 10µ
SYMBOL voltage -64 -32 R0
WINDOW 123 0 0 Left 2
WINDOW 39 0 0 Left 2
SYMATTR InstName V3
SYMATTR Value 5
SYMBOL current 528 240 R0
WINDOW 123 0 0 Left 2
WINDOW 39 0 0 Left 2
SYMATTR InstName I1
SYMATTR Value PULSE(10m 150m 100u 5n 5n 200u 1)
SYMBOL cap 304 400 R0
SYMATTR InstName C3
SYMATTR Value .1µ
SYMBOL cap 512 80 R0
WINDOW 39 24 84 Left 2
WINDOW 40 24 112 Left 2
SYMATTR InstName C4
SYMATTR Value 10µ
TEXT 648 496 Left 2 !.tran 500u
