Version 4
SHEET 1 1156 680
WIRE 48 -192 48 -208
WIRE -144 -128 -976 -128
WIRE -192 -112 -864 -112
WIRE -240 -96 -752 -96
WIRE 48 -96 48 -112
WIRE -752 -80 -752 -96
WIRE -240 -80 -240 -96
WIRE -192 -80 -192 -112
WIRE -144 -80 -144 -128
WIRE -96 -80 -96 -96
WIRE -864 -16 -864 -112
WIRE -752 16 -752 0
WIRE -272 16 -464 16
WIRE 16 16 -16 16
WIRE -976 48 -976 -128
WIRE -464 64 -464 16
WIRE -864 80 -864 64
WIRE -208 128 -208 112
WIRE -96 128 -96 112
WIRE -976 144 -976 128
WIRE -464 160 -464 144
FLAG 48 -96 0
FLAG -464 160 0
FLAG 48 -208 +V
FLAG -96 -96 +V
FLAG -208 192 0
FLAG -96 128 0
FLAG -752 16 0
FLAG -864 80 0
FLAG -976 144 0
FLAG 16 16 OUT
SYMBOL voltage 48 -208 R0
WINDOW 3 27 93 Left 2
SYMATTR Value +5
SYMATTR InstName V2
SYMBOL voltage -464 48 R0
WINDOW 0 28 27 Left 2
WINDOW 3 25 94 Left 2
SYMATTR InstName V3
SYMATTR Value SINE(2.5 10m 1K)
SYMBOL cap -224 192 M180
WINDOW 0 36 51 Left 2
WINDOW 3 34 17 Left 2
SYMATTR InstName C1
SYMATTR Value 1µ
SYMBOL voltage -752 -96 R0
WINDOW 0 28 27 Left 2
WINDOW 3 28 87 Left 2
SYMATTR InstName V4
SYMATTR Value PULSE(0 5 0 1u 1u 5m 10m)
SYMBOL voltage -864 -32 R0
WINDOW 0 28 27 Left 2
WINDOW 3 19 96 Left 2
SYMATTR InstName V5
SYMATTR Value PULSE(0 5 0 1u 1u 10m 20m)
SYMBOL voltage -976 32 R0
WINDOW 0 28 27 Left 2
WINDOW 3 25 94 Left 2
SYMATTR InstName V6
SYMATTR Value PULSE(0 5 0 1u 1u 20m 40m)
SYMBOL opamps\\LTC6910-1 -160 16 R0
SYMATTR InstName U1
TEXT -72 176 Left 2 !.tran 40m
