Version 4
SHEET 1 1100 824
WIRE 432 -304 240 -304
WIRE 240 -288 240 -304
WIRE -32 -224 -144 -224
WIRE 64 -224 -32 -224
WIRE 432 -224 432 -304
WIRE 432 -224 416 -224
WIRE 848 -224 432 -224
WIRE 944 -224 848 -224
WIRE -144 -208 -144 -224
WIRE 848 -208 848 -224
WIRE 944 -208 944 -224
WIRE -32 -128 -32 -144
WIRE 64 -128 -32 -128
WIRE 624 -128 416 -128
WIRE 720 -128 624 -128
WIRE -144 -112 -144 -128
WIRE 624 -112 624 -128
WIRE 720 -112 720 -128
WIRE 848 -112 848 -144
WIRE 944 -112 944 -128
WIRE 64 -32 48 -32
WIRE 448 -32 416 -32
WIRE 544 -32 528 -32
WIRE 624 -16 624 -48
WIRE 720 -16 720 -32
WIRE 48 64 48 -32
WIRE 64 64 48 64
WIRE 576 64 416 64
WIRE 624 64 576 64
WIRE 720 64 624 64
WIRE 624 80 624 64
WIRE 720 80 720 64
WIRE 48 160 -48 160
WIRE 64 160 48 160
WIRE 432 160 416 160
WIRE 448 160 432 160
WIRE 544 160 528 160
WIRE -48 176 -48 160
WIRE 624 176 624 144
WIRE 720 176 720 160
WIRE 48 256 48 160
WIRE 64 256 48 256
WIRE 576 256 576 64
WIRE 576 256 416 256
WIRE -48 272 -48 256
WIRE 432 352 432 160
WIRE 432 352 416 352
WIRE 576 448 416 448
WIRE 624 448 576 448
WIRE 720 448 624 448
WIRE 624 464 624 448
WIRE 720 464 720 448
WIRE -32 544 -48 544
WIRE 64 544 48 544
WIRE 432 544 416 544
WIRE 448 544 432 544
WIRE 544 544 528 544
WIRE 624 560 624 528
WIRE 720 560 720 544
WIRE -32 640 -48 640
WIRE 64 640 48 640
WIRE 576 640 576 448
WIRE 576 640 416 640
WIRE 64 736 48 736
WIRE 432 736 432 544
WIRE 432 736 416 736
FLAG 48 736 0
FLAG -48 640 0
FLAG -48 544 0
FLAG -144 -112 0
FLAG -48 272 0
FLAG -144 -224 IN
FLAG 848 -112 0
FLAG 944 -112 0
FLAG 624 -16 0
FLAG 720 -16 0
FLAG 544 -32 0
FLAG 544 160 0
FLAG 624 176 0
FLAG 720 176 0
FLAG 544 544 0
FLAG 624 560 0
FLAG 720 560 0
FLAG 944 -224 OUT0
FLAG 720 -128 OUT1
FLAG 720 64 OUT23
FLAG 720 448 OUT45
SYMBOL PowerProducts\\LTM8001 240 256 R0
SYMATTR InstName U1
SYMBOL res 64 624 R90
WINDOW 0 0 56 VBottom 2
WINDOW 3 32 56 VTop 2
SYMATTR InstName R1
SYMATTR Value 118K
SYMBOL res 64 528 R90
WINDOW 0 0 56 VBottom 2
WINDOW 3 32 56 VTop 2
SYMATTR InstName R2
SYMATTR Value 19.6K
SYMBOL voltage -144 -224 R0
WINDOW 123 0 0 Left 2
WINDOW 39 0 0 Left 2
SYMATTR InstName V1
SYMATTR Value 24
SYMBOL res -48 -240 R0
SYMATTR InstName R3
SYMATTR Value 510K
SYMBOL voltage -48 160 R0
WINDOW 123 0 0 Left 2
WINDOW 39 0 0 Left 2
SYMATTR InstName V2
SYMATTR Value 3.3
SYMBOL cap 832 -208 R0
SYMATTR InstName C1
SYMATTR Value 570µ
SYMATTR SpiceLine Rser=25m
SYMBOL res 928 -224 R0
SYMATTR InstName Rload0
SYMATTR Value 1.8
SYMBOL cap 608 -112 R0
SYMATTR InstName C2
SYMATTR Value 2.2µ
SYMATTR SpiceLine Rser=10m
SYMBOL res 704 -128 R0
SYMATTR InstName Rload1
SYMATTR Value 1.2
SYMBOL res 432 -16 R270
WINDOW 0 32 56 VTop 2
WINDOW 3 0 56 VBottom 2
SYMATTR InstName R6
SYMATTR Value 121K
SYMBOL res 432 176 R270
WINDOW 0 32 56 VTop 2
WINDOW 3 0 56 VBottom 2
SYMATTR InstName R7
SYMATTR Value 54.9K
SYMBOL cap 608 80 R0
SYMATTR InstName C3
SYMATTR Value 4.7µ
SYMATTR SpiceLine Rser=10m
SYMBOL res 704 64 R0
SYMATTR InstName Rload23
SYMATTR Value .73
SYMBOL res 432 560 R270
WINDOW 0 32 56 VTop 2
WINDOW 3 0 56 VBottom 2
SYMATTR InstName R9
SYMATTR Value 45.3K
SYMBOL cap 608 464 R0
SYMATTR InstName C4
SYMATTR Value 4.7µ
SYMATTR SpiceLine Rser=10m
SYMBOL res 704 448 R0
SYMATTR InstName Rload45
SYMATTR Value .6
TEXT 664 664 Left 2 !.tran 1.5m startup
