Version 4
SHEET 1 2248 692
WIRE 32 -272 -112 -272
WIRE 144 -272 32 -272
WIRE 272 -272 144 -272
WIRE 384 -272 272 -272
WIRE -112 -256 -112 -272
WIRE 144 -240 144 -272
WIRE 272 -240 272 -272
WIRE 32 -176 32 -272
WIRE 64 -176 32 -176
WIRE 384 -176 384 -272
WIRE 384 -176 352 -176
WIRE -112 -160 -112 -176
WIRE -48 -80 -144 -80
WIRE 64 -80 -48 -80
WIRE 448 -80 352 -80
WIRE 544 -80 448 -80
WIRE -144 -64 -144 -80
WIRE -48 -64 -48 -80
WIRE 448 -64 448 -80
WIRE 544 -64 544 -80
WIRE -144 32 -144 16
WIRE -48 32 -48 0
WIRE 448 32 448 0
WIRE 544 32 544 16
WIRE -48 112 -64 112
WIRE 64 112 32 112
WIRE 384 112 352 112
WIRE 480 112 464 112
WIRE -32 304 -64 304
WIRE 64 304 32 304
WIRE 384 304 352 304
WIRE 480 304 448 304
WIRE -48 592 -64 592
WIRE 64 592 32 592
WIRE 208 656 208 640
FLAG -112 -160 0
FLAG 208 656 0
FLAG 448 32 0
FLAG 544 32 0
FLAG -144 32 0
FLAG -48 32 0
FLAG -64 112 0
FLAG 480 112 0
FLAG 480 304 0
FLAG -64 304 0
FLAG -64 592 0
FLAG -112 -272 IN
FLAG -144 -80 OUT1
FLAG 544 -80 OUT2
SYMBOL PowerProducts\\LTM8024 208 208 R0
SYMATTR InstName U1
SYMBOL voltage -112 -272 R0
SYMATTR InstName V1
SYMATTR Value 12
SYMBOL cap 432 -64 R0
SYMATTR InstName C1
SYMATTR Value 22µ
SYMBOL cap -64 -64 R0
SYMATTR InstName C2
SYMATTR Value 22µ
SYMBOL res 528 -80 R0
SYMATTR InstName R1
SYMATTR Value 1.5
SYMBOL res -160 -80 R0
SYMATTR InstName R2
SYMATTR Value 2
SYMBOL res 480 96 R90
WINDOW 0 0 56 VBottom 2
WINDOW 3 32 56 VTop 2
SYMATTR InstName R3
SYMATTR Value 78.7K
SYMBOL res 48 96 R90
WINDOW 0 0 56 VBottom 2
WINDOW 3 32 56 VTop 2
SYMATTR InstName R4
SYMATTR Value 47.5K
SYMBOL cap 448 288 R90
WINDOW 0 0 32 VBottom 2
WINDOW 3 32 32 VTop 2
SYMATTR InstName C3
SYMATTR Value 1n
SYMBOL cap -32 288 M90
WINDOW 0 0 32 VBottom 2
WINDOW 3 32 32 VTop 2
SYMATTR InstName C4
SYMATTR Value 1n
SYMBOL res 48 576 R90
WINDOW 0 0 56 VBottom 2
WINDOW 3 32 56 VTop 2
SYMATTR InstName R5
SYMATTR Value 35.7K
TEXT 384 672 Left 2 !.tran .45m startup
