Version 4
SHEET 1 1240 680
WIRE -64 -48 -96 -48
WIRE 0 -48 -64 -48
WIRE 128 -48 0 -48
WIRE 160 -48 128 -48
WIRE 288 -48 240 -48
WIRE 416 -48 288 -48
WIRE 560 -48 480 -48
WIRE 688 -48 560 -48
WIRE 800 -48 752 -48
WIRE 848 -48 800 -48
WIRE 960 -48 848 -48
WIRE 1040 -48 960 -48
WIRE 1088 -48 1040 -48
WIRE -96 -16 -96 -48
WIRE 560 -16 560 -48
WIRE 1088 -16 1088 -48
WIRE 848 0 848 -48
WIRE 128 16 128 -48
WIRE 288 16 288 -48
WIRE 960 16 960 -48
WIRE -96 80 -96 64
WIRE 0 80 0 -48
WIRE 48 80 0 80
WIRE 384 80 368 80
WIRE 464 80 448 80
WIRE 560 80 560 64
WIRE 848 80 848 64
WIRE 1088 80 1088 64
WIRE 48 176 16 176
WIRE 960 176 960 96
WIRE 960 176 368 176
WIRE 960 192 960 176
WIRE -64 272 -80 272
WIRE 48 272 16 272
WIRE 800 272 800 -48
WIRE 800 272 368 272
WIRE 960 288 960 272
WIRE 112 352 112 336
WIRE 208 352 208 336
WIRE 304 352 304 336
WIRE 112 432 112 416
WIRE 304 432 304 416
FLAG 112 432 0
FLAG 208 352 0
FLAG -80 272 0
FLAG 560 80 0
FLAG -96 80 0
FLAG 960 288 0
FLAG 848 80 0
FLAG 1088 80 0
FLAG 464 80 0
FLAG -64 -48 vIN
FLAG 1040 -48 vOUT
FLAG 304 432 0
FLAG 16 176 0
SYMBOL cap 96 352 R0
SYMATTR InstName C1
SYMATTR Value 10n
SYMBOL res 32 256 R90
WINDOW 0 0 56 VBottom 2
WINDOW 3 32 56 VTop 2
SYMATTR InstName R1
SYMATTR Value 107k
SYMBOL VOLTAGE -96 -32 R0
WINDOW 0 27 22 Left 2
SYMATTR InstName V1
SYMATTR Value 12
SYMBOL ind2 144 -32 R270
WINDOW 0 32 56 VTop 2
WINDOW 3 5 56 VBottom 2
SYMATTR InstName L1
SYMATTR Value 47µ
SYMATTR SpiceLine Rser=6m
SYMATTR Type ind
SYMBOL cap 416 -32 R270
WINDOW 0 32 32 VTop 2
WINDOW 3 0 32 VBottom 2
SYMATTR InstName C2
SYMATTR Value 1µ
SYMATTR SpiceLine Rser=3m
SYMBOL ind2 544 80 M180
WINDOW 0 40 82 Left 2
WINDOW 3 37 42 Left 2
SYMATTR InstName L2
SYMATTR Value 47µ
SYMATTR SpiceLine Rser=6m
SYMATTR Type ind
SYMBOL schottky 688 -32 R270
WINDOW 0 32 32 VTop 2
WINDOW 3 0 32 VBottom 2
SYMATTR InstName D1
SYMATTR Value MBRS1100
SYMATTR Description Diode
SYMATTR Type diode
SYMBOL res 944 0 R0
SYMATTR InstName R4
SYMATTR Value 1Meg
SYMBOL res 944 176 R0
SYMATTR InstName R5
SYMATTR Value 34.8k
SYMBOL res 1072 -32 R0
SYMATTR InstName Rload
SYMATTR Value 500
SYMBOL cap 384 96 R270
WINDOW 0 32 32 VTop 2
WINDOW 3 0 32 VBottom 2
SYMATTR InstName C4
SYMATTR Value 1µ
SYMBOL cap 288 352 R0
WINDOW 3 40 33 Left 2
WINDOW 39 21 59 Left 2
WINDOW 0 29 10 Left 2
SYMATTR Value 6.8n
SYMATTR SpiceLine Rser=33.2k
SYMATTR InstName C5
SYMBOL cap 832 0 R0
WINDOW 3 25 56 Left 2
SYMATTR Value 10µ
SYMATTR SpiceLine Rser=9m
SYMATTR InstName C6
SYMBOL LT8365 208 176 R0
SYMATTR InstName U1
TEXT 568 -72 Bottom 2 !K1 L1 L2 1
TEXT 544 336 Left 2 !.tran 5m startup
