Version 4
SHEET 1 1016 696
WIRE 80 -240 -48 -240
WIRE 176 -240 80 -240
WIRE 400 -240 304 -240
WIRE 528 -240 400 -240
WIRE -48 -224 -48 -240
WIRE 176 -224 176 -240
WIRE 304 -224 304 -240
WIRE 528 -224 528 -240
WIRE 80 -160 80 -240
WIRE 96 -160 80 -160
WIRE 400 -160 400 -240
WIRE 400 -160 384 -160
WIRE -48 -128 -48 -144
WIRE 528 -128 528 -144
WIRE 96 -64 48 -64
WIRE 416 -64 384 -64
WIRE 48 -48 48 -64
WIRE 416 -48 416 -64
WIRE -240 32 -368 32
WIRE -144 32 -240 32
WIRE -80 32 -144 32
WIRE 48 32 48 16
WIRE 48 32 0 32
WIRE 96 32 48 32
WIRE 416 32 416 16
WIRE 416 32 384 32
WIRE 480 32 416 32
WIRE 624 32 560 32
WIRE 800 32 624 32
WIRE 912 32 800 32
WIRE -368 48 -368 32
WIRE -240 48 -240 32
WIRE -144 48 -144 32
WIRE 624 48 624 32
WIRE 800 48 800 32
WIRE 912 48 912 32
WIRE 96 128 32 128
WIRE 528 128 384 128
WIRE -368 144 -368 128
WIRE -240 144 -240 112
WIRE -144 144 -144 112
WIRE 32 144 32 128
WIRE 32 144 -144 144
WIRE 528 144 528 128
WIRE 624 144 624 112
WIRE 624 144 528 144
WIRE 800 144 800 112
WIRE 912 144 912 128
WIRE -144 160 -144 144
WIRE 624 160 624 144
WIRE 416 192 64 192
WIRE 64 224 64 192
WIRE 96 224 64 224
WIRE 416 224 416 192
WIRE 416 224 384 224
WIRE -144 256 -144 240
WIRE 624 256 624 240
WIRE 16 320 0 320
WIRE 96 320 80 320
WIRE 432 320 384 320
WIRE 512 320 496 320
WIRE 96 416 80 416
WIRE 416 416 416 224
WIRE 416 416 384 416
WIRE 432 416 416 416
WIRE 512 416 496 416
WIRE 0 608 -16 608
WIRE 96 608 80 608
WIRE 400 608 384 608
WIRE 304 672 304 656
FLAG -48 -128 0
FLAG -144 256 0
FLAG -368 144 0
FLAG -240 144 0
FLAG 80 416 0
FLAG 0 320 0
FLAG -16 608 0
FLAG 304 672 0
FLAG 528 -128 0
FLAG 624 256 0
FLAG 912 144 0
FLAG 800 144 0
FLAG 512 320 0
FLAG -368 32 OUT1
FLAG 912 32 OUT2
FLAG 400 608 0
FLAG -48 -240 IN1
FLAG 528 -240 IN2
FLAG 512 416 0
SYMBOL voltage -48 -240 R0
WINDOW 123 0 0 Left 2
WINDOW 39 0 0 Left 2
SYMATTR InstName V1
SYMATTR Value 24
SYMBOL ind 16 48 M270
WINDOW 0 32 56 VTop 2
WINDOW 3 5 56 VBottom 2
SYMATTR InstName L1
SYMATTR Value 1µ
SYMATTR Value2 Rser=10m
SYMBOL res -160 144 R0
SYMATTR InstName R1
SYMATTR Value 191K
SYMBOL cap -160 48 R0
WINDOW 123 21 68 Left 2
WINDOW 3 41 38 Left 2
SYMATTR Value2 Rpar=1Meg
SYMATTR Value 4.7p
SYMATTR InstName C1
SYMBOL cap -256 48 R0
WINDOW 123 26 70 Left 2
WINDOW 3 38 41 Left 2
SYMATTR Value2 x2
SYMATTR Value 47µ
SYMATTR InstName C2
SYMATTR SpiceLine Rser=10m
SYMBOL cap 80 304 R90
WINDOW 0 0 32 VBottom 2
WINDOW 3 32 32 VTop 2
SYMATTR InstName C3
SYMATTR Value 470p
SYMBOL res 96 592 R90
WINDOW 0 0 56 VBottom 2
WINDOW 3 32 56 VTop 2
SYMATTR InstName R2
SYMATTR Value 15K
SYMBOL voltage 528 -240 R0
WINDOW 123 0 0 Left 2
WINDOW 39 0 0 Left 2
SYMATTR InstName V2
SYMATTR Value 24
SYMBOL ind 464 48 R270
WINDOW 0 32 56 VTop 2
WINDOW 3 5 56 VBottom 2
SYMATTR InstName L2
SYMATTR Value 1µ
SYMATTR Value2 Rser=10m
SYMBOL res 608 144 R0
SYMATTR InstName R3
SYMATTR Value 316K
SYMBOL cap 608 48 R0
WINDOW 123 24 60 Left 2
WINDOW 3 35 34 Left 2
SYMATTR Value2 Rpar=1Meg
SYMATTR Value 4.7p
SYMATTR InstName C4
SYMBOL cap 784 48 R0
WINDOW 123 25 62 Left 2
WINDOW 3 38 32 Left 2
SYMATTR Value2 x2
SYMATTR Value 47µ
SYMATTR InstName C5
SYMATTR SpiceLine Rser=10m
SYMBOL cap 432 304 M90
WINDOW 0 0 32 VBottom 2
WINDOW 3 32 32 VTop 2
SYMATTR InstName C6
SYMATTR Value 470p
SYMBOL cap 432 400 M90
WINDOW 0 0 32 VBottom 2
WINDOW 3 32 32 VTop 2
SYMATTR InstName C7
SYMATTR Value 1µ
SYMBOL res -384 32 R0
SYMATTR InstName Rload1
SYMATTR Value 2
SYMBOL res 896 32 R0
SYMATTR InstName Rload2
SYMATTR Value 1
SYMBOL cap 32 -48 R0
SYMATTR InstName C8
SYMATTR Value .1µ
SYMBOL cap 400 -48 R0
SYMATTR InstName C9
SYMATTR Value .1µ
SYMBOL LT8650SP 240 208 R0
SYMATTR InstName U1
TEXT 528 672 Left 2 !.tran 0.4m startup
TEXT 40 664 Top 2 ;fsw=2MHz
