Version 4
SHEET 1 2520 1792
WIRE 176 848 -320 848
WIRE 304 848 176 848
WIRE -320 864 -320 848
WIRE -320 960 -320 944
WIRE 176 976 176 848
WIRE 304 976 304 848
WIRE -192 1024 -320 1024
WIRE -96 1024 -192 1024
WIRE -48 1024 -96 1024
WIRE 96 1024 32 1024
WIRE 432 1024 384 1024
WIRE 560 1024 512 1024
WIRE 624 1024 560 1024
WIRE 736 1024 624 1024
WIRE -320 1040 -320 1024
WIRE -192 1040 -192 1024
WIRE 624 1040 624 1024
WIRE 736 1040 736 1024
WIRE -96 1120 -96 1024
WIRE 96 1120 -96 1120
WIRE 560 1120 560 1024
WIRE 560 1120 384 1120
WIRE -320 1136 -320 1120
WIRE -192 1136 -192 1104
WIRE 624 1136 624 1104
WIRE 736 1136 736 1120
WIRE 96 1216 80 1216
WIRE 400 1216 384 1216
WIRE 80 1232 80 1216
WIRE 80 1232 -32 1232
WIRE 400 1232 400 1216
WIRE 400 1232 80 1232
WIRE 16 1312 0 1312
WIRE 96 1312 80 1312
WIRE 416 1312 384 1312
WIRE 496 1312 480 1312
WIRE 96 1408 80 1408
WIRE 400 1408 400 1232
WIRE 400 1408 384 1408
WIRE 416 1408 400 1408
WIRE 496 1408 480 1408
WIRE -32 1600 -32 1232
WIRE 96 1600 -32 1600
WIRE 400 1600 384 1600
WIRE 400 1696 384 1696
FLAG 400 1696 0
FLAG 400 1600 0
FLAG 736 1136 0
FLAG 624 1136 0
FLAG 736 1024 OUT2
FLAG -320 1136 0
FLAG -192 1136 0
FLAG -320 1024 OUT1
FLAG 80 1408 0
FLAG 0 1312 0
FLAG 496 1312 0
FLAG 496 1408 0
FLAG -320 960 0
FLAG -320 848 IN
SYMBOL PowerProducts\\LT8653S 240 1360 R0
SYMATTR InstName U1
SYMBOL ind 416 1040 R270
WINDOW 0 32 56 VTop 2
WINDOW 3 5 56 VBottom 2
SYMATTR InstName L5
SYMATTR Value 1µ
SYMATTR Value2 Rser=10m
SYMBOL cap 608 1040 R0
WINDOW 123 25 62 Left 2
WINDOW 3 38 32 Left 2
SYMATTR Value2 x2
SYMATTR Value 47µ
SYMATTR InstName C20
SYMATTR SpiceLine Rser=10m
SYMBOL res 720 1024 R0
SYMATTR InstName Rload2
SYMATTR Value 1.65
SYMBOL ind 48 1040 M270
WINDOW 0 32 56 VTop 2
WINDOW 3 5 56 VBottom 2
SYMATTR InstName L6
SYMATTR Value 1µ
SYMATTR Value2 Rser=10m
SYMBOL cap -208 1040 R0
WINDOW 123 27 60 Left 2
WINDOW 3 39 33 Left 2
SYMATTR Value2 x2
SYMATTR Value 47µ
SYMATTR InstName C22
SYMATTR SpiceLine Rser=10m
SYMBOL res -336 1024 R0
SYMATTR InstName Rload1
SYMATTR Value 2.5
SYMBOL cap 80 1296 R90
WINDOW 0 0 32 VBottom 2
WINDOW 3 32 32 VTop 2
SYMATTR InstName C23
SYMATTR Value 470p
SYMBOL cap 416 1296 M90
WINDOW 0 0 32 VBottom 2
WINDOW 3 32 32 VTop 2
SYMATTR InstName C24
SYMATTR Value 470p
SYMBOL cap 416 1392 M90
WINDOW 0 0 32 VBottom 2
WINDOW 3 32 32 VTop 2
SYMATTR InstName C25
SYMATTR Value 1µ
SYMBOL voltage -320 848 R0
WINDOW 123 0 0 Left 2
WINDOW 39 0 0 Left 2
SYMATTR InstName V1
SYMATTR Value 24
TEXT 536 1656 Left 2 !.tran .4m startup
