Version 4
SHEET 1 2580 1252
WIRE 256 112 208 112
WIRE 400 112 336 112
WIRE 400 208 400 112
WIRE -192 288 -224 288
WIRE -32 288 -112 288
WIRE 192 288 48 288
WIRE 688 320 608 320
WIRE 784 320 752 320
WIRE 32 384 0 384
WIRE 192 384 112 384
WIRE 688 432 608 432
WIRE 800 432 768 432
WIRE -192 480 -224 480
WIRE 192 480 -112 480
WIRE 704 544 608 544
WIRE 784 544 704 544
WIRE 192 576 160 576
WIRE 32 640 0 640
WIRE 160 640 160 576
WIRE 160 640 112 640
WIRE 400 688 400 656
FLAG 400 688 0
FLAG 800 432 0
FLAG 208 112 0
FLAG -224 288 0
FLAG 0 640 0
FLAG 784 320 0
FLAG -224 480 0
FLAG 0 384 0
FLAG 704 544 Slew_Warning
SYMBOL voltage 672 432 R270
WINDOW 0 45 70 VLeft 2
WINDOW 3 -46 68 VLeft 2
WINDOW 123 0 0 Left 2
WINDOW 39 0 0 Left 2
SYMATTR InstName V6
SYMATTR Value 5
SYMBOL voltage 352 112 M270
WINDOW 0 47 41 VRight 2
WINDOW 3 -44 39 VRight 2
WINDOW 123 0 0 Left 2
WINDOW 39 0 0 Left 2
SYMATTR InstName V5
SYMATTR Value 1.8
SYMBOL voltage -96 288 R90
WINDOW 0 -32 56 VBottom 2
WINDOW 3 32 56 VTop 2
SYMATTR InstName V1
SYMATTR Value PWL(0 0 100u 5)
SYMBOL res 64 272 R90
WINDOW 0 0 56 VBottom 2
WINDOW 3 32 56 VTop 2
SYMATTR InstName R1
SYMATTR Value 10
SYMBOL voltage 128 640 R90
WINDOW 0 -62 56 VTop 2
WINDOW 3 61 40 VBottom 2
WINDOW 123 0 0 Left 0
WINDOW 39 0 0 Left 0
SYMATTR InstName V4
SYMATTR Value PWL(0 1.8 1.1u 1.8 +0.1u 0)
SYMBOL cap 752 304 R90
WINDOW 0 0 32 VBottom 2
WINDOW 3 32 32 VTop 2
SYMATTR InstName C1
SYMATTR Value 10p
SYMBOL voltage -96 480 R90
WINDOW 0 -32 56 VBottom 2
WINDOW 3 33 4 VTop 2
SYMATTR InstName V3
SYMATTR Value PULSE(0 1.8 227n 0.1n 0.1n 40n 1u)
SYMBOL voltage 128 384 R90
WINDOW 0 -32 56 VBottom 2
WINDOW 3 32 56 VTop 2
SYMATTR InstName V2
SYMATTR Value 5
SYMBOL AD4002 400 432 R0
SYMATTR InstName U1
TEXT 664 672 Left 2 !.tran 110u
TEXT 224 744 Left 2 ;IN_SlewAlarm is a warning signal to\nalert user that the IN+ signal is slewing\ntoo fast. This appears in the model only.
