Version 4
SHEET 1 12540 5124
WIRE 10704 3040 10368 3040
WIRE 10704 3072 10704 3040
WIRE 10368 3136 10368 3040
WIRE 10368 3168 10368 3136
WIRE 9568 3184 9472 3184
WIRE 9680 3184 9568 3184
WIRE 9792 3184 9760 3184
WIRE 9936 3184 9792 3184
WIRE 10704 3184 10704 3152
WIRE 9472 3200 9472 3184
WIRE 9792 3216 9792 3184
WIRE 10704 3216 10496 3216
WIRE 10704 3248 10704 3216
WIRE 9936 3296 9936 3184
WIRE 10048 3296 9936 3296
WIRE 10144 3296 10048 3296
WIRE 9472 3312 9472 3280
WIRE 9472 3312 9360 3312
WIRE 10576 3312 10496 3312
WIRE 10624 3312 10576 3312
WIRE 9360 3328 9360 3312
WIRE 10048 3328 9936 3328
WIRE 10144 3328 10048 3328
WIRE 10624 3328 10624 3312
WIRE 9792 3344 9792 3280
WIRE 9872 3344 9792 3344
WIRE 10704 3360 10704 3328
WIRE 9872 3376 9872 3344
WIRE 9472 3408 9472 3312
WIRE 9792 3408 9792 3344
WIRE 10544 3408 10496 3408
WIRE 10560 3408 10544 3408
WIRE 9360 3424 9360 3408
WIRE 10192 3424 10192 3376
WIRE 10624 3424 10624 3408
WIRE 10192 3456 10192 3424
WIRE 10560 3456 10560 3408
WIRE 9472 3504 9472 3488
WIRE 9568 3504 9472 3504
WIRE 9680 3504 9568 3504
WIRE 9792 3504 9792 3472
WIRE 9792 3504 9760 3504
WIRE 9936 3504 9936 3328
WIRE 9936 3504 9792 3504
WIRE 10192 3568 10192 3536
WIRE 10368 3568 10368 3456
WIRE 10560 3568 10560 3536
FLAG 9360 3424 0
FLAG 9568 3184 input+
FLAG 9568 3504 input-
FLAG 9872 3376 0
FLAG 10560 3568 0
FLAG 10192 3568 0
FLAG 10704 3184 0
FLAG 10704 3360 0
FLAG 10368 3568 0
FLAG 10624 3424 0
FLAG 10048 3296 IN+
FLAG 10048 3328 IN-
FLAG 10576 3312 Vout
FLAG 10544 3408 CNV
FLAG 10192 3424 RSTn
FLAG 10368 3136 REF
SYMBOL voltage 9360 3312 R0
WINDOW 0 -7 8 Right 2
WINDOW 3 -6 98 Right 2
WINDOW 123 0 0 Left 0
WINDOW 39 0 0 Left 0
SYMATTR InstName Vin_cm
SYMATTR Value 2.5
SYMBOL voltage 9472 3184 R0
WINDOW 0 -17 7 Right 2
WINDOW 3 -23 85 Right 2
WINDOW 123 0 0 Left 0
WINDOW 39 0 0 Left 0
SYMATTR InstName VinP
SYMATTR Value SINE(0 2 2000)
SYMBOL cap 9776 3216 R0
SYMATTR InstName Cfilt1
SYMATTR Value 1n
SYMBOL res 9664 3168 M90
WINDOW 0 0 56 VBottom 2
WINDOW 3 32 56 VTop 2
SYMATTR InstName Rfilt1
SYMATTR Value 33
SYMBOL res 9776 3488 R90
WINDOW 0 0 56 VBottom 2
WINDOW 3 32 56 VTop 2
SYMATTR InstName Rfilt2
SYMATTR Value 33
SYMBOL cap 9776 3408 R0
SYMATTR InstName Cfilt2
SYMATTR Value 1n
SYMBOL voltage 10560 3440 M0
WINDOW 123 0 0 Left 0
WINDOW 39 0 0 Left 0
WINDOW 3 -465 98 Left 2
SYMATTR Value PULSE(0 1.8 500n .2n .2n 19.8n 500n)
SYMATTR InstName V3
SYMBOL voltage 10192 3440 R0
WINDOW 123 0 0 Left 0
WINDOW 39 0 0 Left 0
SYMATTR InstName V4
SYMATTR Value PWL(0 0 1n 0 2n 1.8)
SYMBOL voltage 9472 3504 R180
WINDOW 0 74 12 Right 2
WINDOW 3 46 96 Right 2
WINDOW 123 0 0 Left 0
WINDOW 39 0 0 Left 0
SYMATTR InstName VinN
SYMATTR Value SINE(0 2 2000 0 0 180)
SYMBOL voltage 10704 3056 R0
WINDOW 123 0 0 Left 0
WINDOW 39 24 124 Left 2
SYMATTR InstName V7
SYMATTR Value 5
SYMBOL voltage 10704 3232 R0
WINDOW 123 0 0 Left 0
WINDOW 39 0 0 Left 0
SYMATTR InstName V8
SYMATTR Value 5.4
SYMBOL res 10608 3312 R0
SYMATTR InstName R1
SYMATTR Value 10k
SYMBOL AD4030-24 10400 3312 R0
SYMATTR InstName U1
TEXT 9872 3576 Left 2 !.tran 0 2m 0 1n
