Version 4
SHEET 1 2580 1252
WIRE 272 112 224 112
WIRE 400 112 352 112
WIRE 400 208 400 112
WIRE -160 224 -192 224
WIRE -32 224 -80 224
WIRE 128 224 48 224
WIRE 128 272 128 224
WIRE 192 272 128 272
WIRE 656 320 608 320
WIRE 752 320 720 320
WIRE -160 352 -192 352
WIRE -32 352 -80 352
WIRE 192 352 48 352
WIRE 80 432 32 432
WIRE 192 432 160 432
WIRE 656 432 608 432
WIRE 768 432 736 432
WIRE -160 512 -192 512
WIRE 192 512 -80 512
WIRE 704 544 608 544
WIRE 784 544 704 544
WIRE 192 592 128 592
WIRE 16 640 -16 640
WIRE 128 640 128 592
WIRE 128 640 96 640
WIRE 400 688 400 656
FLAG 400 688 0
FLAG 768 432 0
FLAG 224 112 0
FLAG -192 224 0
FLAG -16 640 0
FLAG 752 320 0
FLAG -192 512 0
FLAG 32 432 0
FLAG 704 544 Slew_Warning
FLAG -192 352 0
SYMBOL voltage 640 432 R270
WINDOW 0 45 70 VLeft 2
WINDOW 3 -46 63 VLeft 2
WINDOW 123 0 0 Left 2
WINDOW 39 0 0 Left 2
SYMATTR InstName V7
SYMATTR Value 5
SYMBOL voltage 368 112 M270
WINDOW 0 47 41 VRight 2
WINDOW 3 -44 39 VRight 2
WINDOW 123 0 0 Left 2
WINDOW 39 0 0 Left 2
SYMATTR InstName V6
SYMATTR Value 1.8
SYMBOL voltage -64 224 R90
WINDOW 0 -32 56 VBottom 2
WINDOW 3 32 56 VTop 2
SYMATTR InstName V1
SYMATTR Value PWL(0 0 100u 5)
SYMBOL res 64 208 R90
WINDOW 0 0 56 VBottom 2
WINDOW 3 32 56 VTop 2
SYMATTR InstName R1
SYMATTR Value 10
SYMBOL voltage 112 640 R90
WINDOW 0 -60 58 VTop 2
WINDOW 3 61 40 VBottom 2
WINDOW 123 0 0 Left 0
WINDOW 39 0 0 Left 0
SYMATTR InstName V5
SYMATTR Value PWL(0 1.8 1.1u 1.8 +0.1u 0)
SYMBOL cap 720 304 R90
WINDOW 0 0 32 VBottom 2
WINDOW 3 32 32 VTop 2
SYMATTR InstName C1
SYMATTR Value 10p
SYMBOL voltage -64 512 R90
WINDOW 0 -32 56 VBottom 2
WINDOW 3 30 68 VTop 2
SYMATTR InstName V4
SYMATTR Value PULSE(0 1.8 227n 0.1n 0.1n 40n 1u)
SYMBOL voltage 176 432 R90
WINDOW 0 -32 56 VBottom 2
WINDOW 3 32 56 VTop 2
SYMATTR InstName V3
SYMATTR Value 5
SYMBOL voltage -64 352 R90
WINDOW 0 -32 56 VBottom 2
WINDOW 3 32 56 VTop 2
WINDOW 123 0 0 Left 0
WINDOW 39 0 0 Left 0
SYMATTR InstName V2
SYMATTR Value PWL(0 5 100u 0)
SYMBOL res 64 336 R90
WINDOW 0 0 56 VBottom 2
WINDOW 3 32 56 VTop 2
SYMATTR InstName R2
SYMATTR Value 10
SYMBOL AD4003 400 432 R0
SYMATTR InstName U1
TEXT 664 672 Left 2 !.tran 110u
TEXT 224 744 Left 2 ;IN_SlewAlarm is a warning signal to\nalert user that the IN+ or IN- signal is slewing\ntoo fast. This appears in the model only.
