Version 4
SHEET 1 1572 680
WIRE 432 -128 352 -128
WIRE 592 -128 512 -128
WIRE 592 -48 592 -128
WIRE 432 96 0 96
WIRE 848 96 752 96
WIRE 992 96 848 96
WIRE 848 128 848 96
WIRE 992 128 992 96
WIRE 848 240 848 192
WIRE 992 240 992 208
WIRE 0 256 0 96
WIRE 592 272 592 240
WIRE 0 384 0 336
FLAG 0 384 0
FLAG 848 240 0
FLAG 352 -128 0
FLAG 992 240 0
FLAG 592 272 0
FLAG 0 96 IN
FLAG 992 96 OUT
SYMBOL voltage 0 240 R0
SYMATTR InstName V1
SYMATTR Value PWL(0 0 1m 0 +10n 4 +1m 4 +10n 1 +1m 1 +1m 0 +1m 5 9m 5 +10n 0 9.1m 0 +0.5m 2.5)
SYMBOL voltage 528 -128 R90
WINDOW 0 -32 56 VBottom 2
WINDOW 3 32 56 VTop 2
SYMATTR InstName V2
SYMATTR Value 200
SYMBOL res 976 112 R0
SYMATTR InstName R1
SYMATTR Value 1T
SYMBOL cap 832 128 R0
SYMATTR InstName C1
SYMATTR Value 200p
SYMBOL AD5535Bopamp 592 96 R0
SYMATTR InstName U1
TEXT 144 0 Left 2 !.tran 14m startup
