Version 4
SHEET 1 2580 1520
WIRE 192 400 176 400
WIRE 288 400 272 400
WIRE 176 480 176 400
WIRE -592 560 -624 560
WIRE -208 560 -512 560
WIRE -64 560 -208 560
WIRE 320 624 256 624
WIRE 320 640 320 624
WIRE -224 688 -256 688
WIRE -64 688 -144 688
WIRE 320 720 320 704
WIRE 16 784 16 768
WIRE 176 832 176 768
WIRE 208 832 176 832
WIRE 320 832 288 832
FLAG -624 560 0
FLAG 320 720 0
FLAG 320 624 OUT
FLAG 288 400 0
FLAG -256 688 0
FLAG 16 784 0
FLAG 320 832 0
FLAG -208 560 IN
SYMBOL cap 304 704 M180
WINDOW 0 24 56 Left 2
WINDOW 3 24 8 Left 2
SYMATTR InstName C1
SYMATTR Value 100p
SYMBOL voltage -128 688 M270
WINDOW 0 48 44 VRight 2
WINDOW 3 -50 -29 VRight 2
WINDOW 123 0 0 Left 2
WINDOW 39 0 0 Left 2
SYMATTR InstName V2
SYMATTR Value SINE(0.5 50m 1K 100u)
SYMBOL voltage -496 560 R90
WINDOW 0 -32 56 VBottom 2
WINDOW 3 35 42 VTop 2
WINDOW 123 63 42 VTop 2
SYMATTR InstName V1
SYMATTR Value PWL(0 0 100u 0 +1u 0.625 +5m 0.625 +1u 1.25 +5m 1.25
SYMATTR Value2 +1u 1.875 +5m 1.875 +1u 2.5 +5m 2.5)
SYMBOL voltage 176 400 R270
WINDOW 0 32 56 VTop 2
WINDOW 3 -32 56 VBottom 2
SYMATTR InstName V3
SYMATTR Value 12
SYMBOL voltage 192 832 R270
WINDOW 0 32 56 VTop 2
WINDOW 3 -32 56 VBottom 2
SYMATTR InstName V4
SYMATTR Value -12
SYMBOL AD5766 96 624 R0
WINDOW 39 4 70 Center 2
SYMATTR InstName U1
TEXT 464 864 Left 2 !.tran 21m
TEXT -344 792 Left 2 ;Dither with 0.5V offset\nRange is one of {1,2,...,8}
