Version 4
SHEET 1 2580 1520
WIRE 176 400 128 400
WIRE 304 400 256 400
WIRE 128 480 128 400
WIRE -480 528 -512 528
WIRE -272 528 -400 528
WIRE -272 560 -272 528
WIRE -64 560 -272 560
WIRE 352 624 304 624
WIRE 400 624 352 624
WIRE 496 624 464 624
WIRE -224 704 -256 704
WIRE -64 704 -144 704
WIRE 16 816 16 768
WIRE 128 848 128 768
WIRE 176 848 128 848
WIRE 304 848 256 848
FLAG -512 528 0
FLAG 496 624 0
FLAG 352 624 OUT
FLAG 304 400 0
FLAG -256 704 0
FLAG 16 816 0
FLAG 304 848 0
FLAG -272 528 IN
SYMBOL cap 464 608 R90
WINDOW 0 0 32 VBottom 2
WINDOW 3 32 32 VTop 2
SYMATTR InstName C1
SYMATTR Value 100p
SYMBOL voltage -128 704 M270
WINDOW 0 48 44 VRight 2
WINDOW 3 -50 -29 VRight 2
WINDOW 123 0 0 Left 2
WINDOW 39 0 0 Left 2
SYMATTR InstName V2
SYMATTR Value SINE(0.5 50m 1K 100u)
SYMBOL voltage -384 528 R90
WINDOW 0 -32 56 VBottom 2
WINDOW 3 35 42 VTop 2
WINDOW 123 63 42 VTop 2
SYMATTR InstName V1
SYMATTR Value PWL(0 0 100u 0 +1u 0.625 +5m 0.625 +1u 1.25 +5m 1.25
SYMATTR Value2 +1u 1.875 +5m 1.875 +1u 2.5 +5m 2.5)
SYMBOL voltage 160 400 R270
WINDOW 0 32 56 VTop 2
WINDOW 3 -32 56 VBottom 2
SYMATTR InstName V3
SYMATTR Value 12
SYMBOL voltage 160 848 R270
WINDOW 0 32 56 VTop 2
WINDOW 3 -32 56 VBottom 2
SYMATTR InstName V4
SYMATTR Value -12
SYMBOL AD5766 96 624 R0
WINDOW 39 4 70 Center 2
SYMATTR InstName U1
TEXT -216 392 Left 2 !.tran 21m
TEXT -344 808 Left 2 ;Dither with 0.5V offset\nRange is one of {1,2,...,8}
