Version 4
SHEET 1 1240 700
WIRE 560 -1344 528 -1344
WIRE 640 -1344 624 -1344
WIRE 416 -1232 400 -1232
WIRE 528 -1232 528 -1344
WIRE 528 -1232 496 -1232
WIRE 544 -1232 528 -1232
WIRE 640 -1232 640 -1344
WIRE 640 -1232 624 -1232
WIRE 64 -1200 64 -1216
WIRE 160 -1200 160 -1216
WIRE 528 -1120 528 -1232
WIRE 544 -1120 528 -1120
WIRE 64 -1104 64 -1120
WIRE 160 -1104 160 -1120
WIRE 640 -1104 640 -1232
WIRE 640 -1104 608 -1104
WIRE 752 -1104 640 -1104
WIRE 400 -1088 288 -1088
WIRE 544 -1088 480 -1088
WIRE 752 -1088 752 -1104
WIRE 288 -1072 288 -1088
WIRE 752 -992 752 -1008
WIRE 288 -976 288 -992
FLAG 64 -1216 +V
FLAG 288 -976 0
FLAG 752 -1104 OUT
FLAG 576 -1136 +V
FLAG 160 -1216 -V
FLAG 576 -1072 -V
FLAG 400 -1232 0
FLAG 752 -992 0
FLAG 160 -1104 0
FLAG 64 -1104 0
FLAG 288 -1088 IN
SYMBOL voltage 64 -1216 R0
WINDOW 123 0 0 Left 2
WINDOW 39 0 0 Left 2
SYMATTR InstName V1
SYMATTR Value 12
SYMBOL voltage 288 -1088 R0
WINDOW 123 24 146 Left 2
WINDOW 39 48 59 Left 2
SYMATTR SpiceLine Rser=50
SYMATTR InstName Vin
SYMATTR Value SINE(0 1 10Meg)
SYMBOL res 512 -1248 R90
WINDOW 0 0 56 VBottom 2
WINDOW 3 32 56 VTop 2
SYMATTR InstName R1
SYMATTR Value 499
SYMBOL res 640 -1248 R90
WINDOW 0 0 56 VBottom 2
WINDOW 3 32 56 VTop 2
SYMATTR InstName R2
SYMATTR Value 499
SYMBOL voltage 160 -1216 R0
WINDOW 123 24 146 Left 2
WINDOW 39 24 125 Left 2
SYMATTR InstName V2
SYMATTR Value -12
SYMBOL res 736 -1104 R0
SYMATTR InstName Rload
SYMATTR Value 1K
SYMBOL res 496 -1104 R90
WINDOW 0 0 56 VBottom 2
WINDOW 3 32 56 VTop 2
SYMATTR InstName R4
SYMATTR Value 249
SYMBOL cap 624 -1360 R90
WINDOW 0 0 32 VBottom 2
WINDOW 3 32 32 VTop 2
SYMATTR InstName C1
SYMATTR Value 2.2p
SYMBOL Opamps\\AD8066 576 -1168 R0
SYMATTR InstName U1
TEXT 592 -984 Left 2 !.tran 1u
