Version 4
SHEET 1 916 680
WIRE 464 64 432 64
WIRE 464 80 464 64
WIRE 432 96 432 64
WIRE 432 208 432 176
WIRE 432 224 432 208
WIRE 368 240 -32 240
WIRE 400 240 368 240
WIRE -32 256 -32 240
WIRE -112 272 -192 272
WIRE -80 272 -112 272
WIRE 400 272 80 272
WIRE 400 304 208 304
WIRE 80 320 80 272
WIRE 208 320 208 304
WIRE 640 320 576 320
WIRE 400 336 320 336
WIRE 640 336 640 320
WIRE -80 352 -80 320
WIRE -32 352 -32 336
WIRE -32 352 -80 352
WIRE 0 352 -32 352
WIRE 320 352 320 336
WIRE -32 368 -32 352
WIRE 0 368 0 352
WIRE 368 368 352 368
WIRE 400 368 368 368
WIRE -112 384 -112 272
WIRE -80 384 -112 384
WIRE 368 400 352 400
WIRE 400 400 368 400
WIRE 512 400 512 384
WIRE 80 416 80 400
WIRE 208 416 208 400
WIRE -192 432 -192 272
WIRE 640 432 640 416
WIRE -80 448 -80 432
WIRE 432 448 432 416
WIRE -32 464 -32 448
WIRE 352 464 352 400
WIRE 352 464 -32 464
WIRE 432 464 432 448
WIRE -192 528 -192 512
WIRE 432 560 432 544
FLAG 432 560 0
FLAG 464 80 0
FLAG 512 400 0
FLAG 640 432 0
FLAG 432 448 -VS
FLAG 368 368 -VS
FLAG 320 352 0
FLAG 368 240 +IN
FLAG 368 400 -IN
FLAG 640 320 OUT
FLAG 432 208 +VS
FLAG -80 448 0
FLAG -192 272 IN
FLAG -192 528 0
FLAG 0 368 0
FLAG 80 416 0
FLAG 208 416 0
SYMBOL AD8253 432 320 R0
SYMATTR InstName U1
SYMBOL voltage 432 448 R0
WINDOW 0 41 47 Left 2
WINDOW 3 37 69 Left 2
SYMATTR InstName -VS
SYMATTR Value -15
SYMBOL voltage 432 192 M180
WINDOW 0 37 69 Left 2
WINDOW 3 42 45 Left 2
SYMATTR InstName +VS
SYMATTR Value 15
SYMBOL res 624 320 R0
SYMATTR InstName RL
SYMATTR Value 2k
SYMBOL e -32 240 R0
WINDOW 0 39 36 Left 2
WINDOW 3 41 66 Left 2
SYMATTR InstName E1
SYMATTR Value 0.5
SYMBOL e -32 352 R0
WINDOW 0 38 46 Left 2
WINDOW 3 39 70 Left 2
SYMATTR InstName E2
SYMATTR Value 0.5
SYMBOL voltage -192 416 R0
WINDOW 123 0 0 Left 0
WINDOW 39 0 0 Left 0
SYMATTR InstName VIN
SYMATTR Value SINE(0 10m 1k)
SYMBOL voltage 80 304 R0
WINDOW 0 38 43 Left 2
WINDOW 3 41 71 Left 2
SYMATTR InstName VA1
SYMATTR Value {A1}
SYMBOL voltage 208 304 R0
WINDOW 0 39 44 Left 2
WINDOW 3 41 72 Left 2
SYMATTR InstName VA0
SYMATTR Value {A0}
TEXT -224 584 Left 2 !.tran 2m
TEXT -216 136 Left 2 !.param A0 = table(index, 1, 0, 2, 5, 3, 0, 4, 5)\n.param A1 = table(index, 1, 0, 2, 0, 3, 5, 4, 5)\n.step param index list 1 2 3 4
