Version 4
SHEET 1 7424 924
WIRE 2736 -1200 2256 -1200
WIRE 2736 -1104 2736 -1200
WIRE 2816 -1104 2736 -1104
WIRE 3472 -1104 3136 -1104
WIRE 3472 -1072 3472 -1104
WIRE 2448 -1056 2368 -1056
WIRE 2592 -1056 2512 -1056
WIRE 2640 -1056 2592 -1056
WIRE 2736 -1056 2704 -1056
WIRE 2256 -1008 2256 -1200
WIRE 2368 -1008 2368 -1056
WIRE 2736 -1008 2736 -1056
WIRE 2768 -1008 2736 -1008
WIRE 2816 -1008 2768 -1008
WIRE 3376 -1008 3136 -1008
WIRE 2592 -992 2592 -1056
WIRE 3376 -960 3376 -1008
WIRE 3472 -960 3472 -992
WIRE 2768 -912 2736 -912
WIRE 2816 -912 2768 -912
WIRE 3200 -912 3136 -912
WIRE 3296 -912 3200 -912
WIRE 2256 -880 2256 -928
WIRE 2368 -864 2368 -928
WIRE 2432 -864 2368 -864
WIRE 2592 -864 2592 -928
WIRE 2592 -864 2432 -864
WIRE 2640 -864 2592 -864
WIRE 2736 -864 2736 -912
WIRE 2736 -864 2704 -864
WIRE 3296 -864 3296 -912
WIRE 3376 -864 3376 -896
WIRE 2432 -832 2432 -864
WIRE 2816 -816 2784 -816
WIRE 3216 -816 3136 -816
WIRE 3216 -784 3216 -816
WIRE 3296 -768 3296 -800
WIRE 3216 -688 3216 -720
FLAG 3200 -912 vOUT
FLAG 2784 -816 0
FLAG 3472 -960 0
FLAG 2432 -832 0
FLAG 3296 -768 0
FLAG 3376 -864 0
FLAG 3216 -688 0
FLAG 2256 -880 0
FLAG 2768 -1008 INHI
FLAG 2768 -912 INLO
SYMBOL cap 2704 -1072 R90
WINDOW 0 0 32 VBottom 2
WINDOW 3 32 32 VTop 2
SYMATTR InstName C1
SYMATTR Value 10n
SYMBOL cap 2704 -880 R90
WINDOW 0 0 32 VBottom 2
WINDOW 3 32 32 VTop 2
SYMATTR InstName C2
SYMATTR Value 10n
SYMBOL r 2592 -992 M90
WINDOW 0 15 20 VRight 2
WINDOW 3 50 23 VRight 2
SYMATTR InstName R1
SYMATTR Value 52.3
SYMBOL r 2512 -1056 R180
WINDOW 0 45 33 Right 2
WINDOW 3 45 -31 Right 2
SYMATTR InstName R2
SYMATTR Value 50
SYMBOL voltage 2368 -1024 R0
WINDOW 3 -143 259 Left 2
WINDOW 123 0 0 Left 0
WINDOW 39 0 0 Left 0
SYMATTR Value SINE(0 {2*pow(10,dBV/20)} {fin})
SYMATTR InstName V1
SYMBOL voltage 3472 -1088 R0
WINDOW 123 0 0 Left 0
WINDOW 39 0 0 Left 0
SYMATTR InstName V4
SYMATTR Value 5
SYMBOL voltage 2256 -1024 R0
WINDOW 123 0 0 Left 0
WINDOW 39 0 0 Left 0
SYMATTR InstName V3
SYMATTR Value 5
SYMBOL r 3296 -864 M90
WINDOW 0 -5 13 VRight 2
WINDOW 3 53 16 VRight 2
SYMATTR InstName R3
SYMATTR Value 10Meg
SYMBOL cap 3360 -960 R0
SYMATTR InstName C3
SYMATTR Value 10p
SYMBOL cap 3200 -784 R0
SYMATTR InstName C4
SYMATTR Value 10p
SYMBOL AD8310 2976 -960 R0
SYMATTR InstName U1
TEXT 2896 -696 Left 2 !.tran 400n
TEXT 2312 -1136 Left 2 ;RF Signal Generator
TEXT 2576 -720 Left 2 !.param fin=1e8\n.param dBV 10
RECTANGLE Normal 2528 -800 2320 -1120 2
