Version 4
SHEET 1 1240 700
WIRE 640 -1264 640 -1280
WIRE 752 -1264 752 -1280
WIRE 464 -1184 112 -1184
WIRE 640 -1168 640 -1184
WIRE 752 -1168 752 -1184
WIRE 112 -1152 112 -1184
WIRE 464 -1152 368 -1152
WIRE 752 -1104 640 -1104
WIRE 752 -1088 752 -1104
WIRE 368 -1056 368 -1072
WIRE 464 -1056 368 -1056
WIRE 112 -1024 112 -1072
WIRE 464 -1024 112 -1024
WIRE 576 -1024 576 -1040
WIRE 112 -1008 112 -1024
WIRE 752 -992 752 -1008
WIRE 576 -928 576 -944
WIRE 112 -912 112 -928
FLAG 640 -1280 +V
FLAG 640 -1168 0
FLAG 752 -1104 OUT
FLAG 496 -1200 +V
FLAG 752 -1280 -V
FLAG 496 -1008 -V
FLAG 752 -992 0
FLAG 752 -1168 0
FLAG 112 -912 0
FLAG 576 -928 0
SYMBOL voltage 640 -1280 R0
WINDOW 123 0 0 Left 2
WINDOW 39 0 0 Left 2
SYMATTR InstName V1
SYMATTR Value 15
SYMBOL voltage 112 -1168 R0
WINDOW 123 24 146 Left 2
WINDOW 39 24 125 Left 2
SYMATTR InstName Vin
SYMATTR Value SINE(0 100m 10K)
SYMBOL res 352 -1168 R0
SYMATTR InstName R1
SYMATTR Value 665
SYMBOL voltage 752 -1280 R0
WINDOW 123 24 146 Left 2
WINDOW 39 24 125 Left 2
SYMATTR InstName V2
SYMATTR Value -15
SYMBOL res 736 -1104 R0
SYMATTR InstName Rload
SYMATTR Value 10K
SYMBOL voltage 112 -1024 R0
WINDOW 123 24 132 Left 2
WINDOW 39 24 114 Left 2
SYMATTR InstName Vcm
SYMATTR Value 1
SYMBOL voltage 576 -1040 R0
WINDOW 123 24 132 Left 2
WINDOW 39 24 114 Left 2
SYMATTR InstName Vref
SYMATTR Value 0.5
SYMBOL AD8429 496 -1104 R0
SYMATTR InstName U1
TEXT 696 -936 Left 2 !.tran 1m
