Version 4
SHEET 1 880 680
WIRE 160 80 -240 80
WIRE 192 80 160 80
WIRE -240 96 -240 80
WIRE 160 96 160 80
WIRE 192 96 192 80
WIRE 112 128 -112 128
WIRE -112 144 -112 128
WIRE 112 144 112 128
WIRE 128 144 112 144
WIRE 320 176 272 176
WIRE -240 192 -240 176
WIRE 128 208 112 208
WIRE -112 240 -112 224
WIRE 112 240 112 208
WIRE 112 240 -112 240
WIRE -112 272 -112 240
WIRE 160 272 160 256
WIRE 192 272 192 256
WIRE 192 272 160 272
WIRE 160 288 160 272
WIRE -112 368 -112 352
FLAG 160 288 0
FLAG -112 368 0
FLAG -240 192 0
FLAG 320 176 OUT
SYMBOL AD8418A 160 176 R0
SYMATTR InstName U1
SYMBOL voltage -240 80 R0
SYMATTR InstName V1
SYMATTR Value 5
SYMBOL voltage -112 256 R0
WINDOW 123 24 132 Left 2
WINDOW 39 24 114 Left 2
SYMATTR InstName VCM
SYMATTR Value 4
SYMBOL voltage -112 128 R0
WINDOW 123 24 132 Left 2
WINDOW 39 24 114 Left 2
SYMATTR Value SINE(0 0.1 1k)
SYMATTR InstName VDIFF
TEXT 208 304 Left 2 !.tran 10m
