Version 4
SHEET 1 1244 700
WIRE 640 -1200 528 -1200
WIRE 560 -1136 560 -1152
WIRE 240 -1120 240 -1136
WIRE 528 -1120 528 -1200
WIRE 544 -1120 528 -1120
WIRE 640 -1104 640 -1200
WIRE 640 -1104 608 -1104
WIRE 736 -1104 640 -1104
WIRE 544 -1088 432 -1088
WIRE 432 -1072 432 -1088
WIRE 560 -1056 560 -1072
WIRE 240 -1024 240 -1040
WIRE 432 -976 432 -992
FLAG 240 -1136 +V
FLAG 240 -1024 0
FLAG 432 -976 0
FLAG 736 -1104 OUT
FLAG 560 -1056 0
FLAG 432 -1088 IN
FLAG 560 -1152 +V
SYMBOL voltage 240 -1136 R0
SYMATTR InstName V2
SYMATTR Value 5
SYMBOL voltage 432 -1088 R0
WINDOW 123 24 146 Left 2
WINDOW 39 24 125 Left 2
SYMATTR InstName V4
SYMATTR Value SINE(2.5 1 250K)
SYMBOL Opamps\\ADA4841 576 -1104 R0
SYMATTR InstName U1
TEXT 720 -992 Left 2 !.tran 500u
