Version 4
SHEET 1 1424 1064
WIRE 256 -96 192 -96
WIRE 368 -96 320 -96
WIRE -96 0 -96 -16
WIRE 80 0 80 -16
WIRE 192 16 192 -96
WIRE 240 16 192 16
WIRE 368 16 368 -96
WIRE 368 16 320 16
WIRE -96 96 -96 80
WIRE 80 96 80 80
WIRE 288 144 288 128
WIRE 192 160 192 16
WIRE 192 160 -192 160
WIRE 224 160 192 160
WIRE -192 176 -192 160
WIRE 224 208 192 208
WIRE 368 208 368 16
WIRE 368 208 352 208
WIRE 480 208 368 208
WIRE 480 224 480 208
WIRE 224 256 192 256
WIRE -192 272 -192 256
WIRE 288 288 288 272
WIRE 480 320 480 304
FLAG -96 96 0
FLAG 80 96 0
FLAG -96 -16 +V
FLAG 80 -16 -V
FLAG 288 128 +V
FLAG 288 288 -V
FLAG 480 320 0
FLAG -192 272 0
FLAG 480 208 OUT
FLAG -192 160 IN
FLAG 192 256 0
SYMBOL voltage -96 -16 R0
SYMATTR InstName V1
SYMATTR Value 5
SYMBOL voltage 80 96 M180
WINDOW 0 24 96 Left 2
WINDOW 3 24 16 Left 2
SYMATTR InstName V2
SYMATTR Value 5
SYMBOL ADA4530-1 288 208 R0
SYMATTR InstName U1
SYMBOL current -192 176 R0
WINDOW 123 0 0 Left 2
WINDOW 39 0 0 Left 2
SYMATTR InstName I1
SYMATTR Value PULSE(0 10n 1m 1u 1u 1 2)
SYMBOL res 336 0 R90
WINDOW 0 0 56 VBottom 2
WINDOW 3 32 56 VTop 2
SYMATTR InstName R1
SYMATTR Value 100Meg
SYMBOL cap 320 -112 R90
WINDOW 0 0 32 VBottom 2
WINDOW 3 32 32 VTop 2
SYMATTR InstName C1
SYMATTR Value 5p
SYMBOL res 464 208 R0
SYMATTR InstName R2
SYMATTR Value 10K
TEXT -48 384 Left 2 !.tran 10\n;.options gmin=1e-15 ; Uncomment to see actual  ADA4530 input impedance
