Version 4
SHEET 1 1012 792
WIRE -528 -80 -528 -112
WIRE -928 -16 -928 -48
WIRE -832 -16 -832 -48
WIRE -736 -16 -736 -48
WIRE -640 -16 -640 -48
WIRE -528 32 -528 0
WIRE -432 32 -528 32
WIRE -528 48 -528 32
WIRE -928 112 -928 64
WIRE -832 112 -832 64
WIRE -736 112 -736 64
WIRE -640 112 -640 64
WIRE -528 160 -528 128
WIRE -272 272 -272 224
WIRE -240 272 -240 224
WIRE -208 272 -208 224
WIRE -320 304 -528 304
WIRE -48 304 -48 224
WIRE 0 304 -48 304
WIRE 80 304 0 304
WIRE 224 304 128 304
WIRE -736 336 -832 336
WIRE -528 336 -528 304
WIRE -528 336 -656 336
WIRE -512 336 -528 336
WIRE -320 336 -432 336
WIRE -48 336 -48 304
WIRE -48 336 -144 336
WIRE 0 336 0 304
WIRE 128 336 128 304
WIRE -832 352 -832 336
WIRE 80 352 80 304
WIRE -320 368 -528 368
WIRE -656 400 -720 400
WIRE -528 400 -528 368
WIRE -528 400 -576 400
WIRE -512 400 -528 400
WIRE -320 400 -432 400
WIRE -48 400 -144 400
WIRE -320 432 -352 432
WIRE -48 448 -48 400
WIRE 0 448 0 416
WIRE 0 448 -48 448
WIRE 80 448 80 400
WIRE 80 448 0 448
WIRE -832 512 -832 432
WIRE -720 512 -720 480
WIRE -352 512 -352 432
WIRE -272 512 -272 464
WIRE -240 512 -240 464
WIRE -208 512 -208 464
WIRE -48 512 -48 448
WIRE 128 512 128 416
FLAG -832 112 0
FLAG -736 112 0
FLAG -640 112 0
FLAG -432 32 0
FLAG -528 160 Vee
FLAG -272 512 Vee
FLAG -528 -112 Vcc
FLAG -272 224 Vcc
FLAG -352 512 0
FLAG -832 -48 VH
FLAG -736 -48 VL
FLAG -640 -48 VOCM
FLAG -240 224 VOCM
FLAG -720 512 0
FLAG 128 512 0
FLAG 224 304 Out
FLAG -832 512 0
FLAG -48 512 OUT+
FLAG -48 224 OUT-
FLAG -208 224 VH
FLAG -208 512 VL
FLAG -240 512 _DIS
FLAG -928 112 0
FLAG -928 -48 _DIS
SYMBOL ADA4945-HP -272 368 R0
WINDOW 3 73 59 Left 2
SYMATTR InstName U1
SYMBOL voltage -832 -32 R0
WINDOW 123 0 0 Left 0
WINDOW 39 0 0 Left 0
SYMATTR InstName V1
SYMATTR Value 4.5
SYMBOL voltage -736 -32 R0
WINDOW 123 0 0 Left 0
WINDOW 39 0 0 Left 0
SYMATTR InstName V2
SYMATTR Value 0.5
SYMBOL voltage -640 -32 R0
WINDOW 123 0 0 Left 0
WINDOW 39 0 0 Left 0
SYMATTR InstName V3
SYMATTR Value 2.5
SYMBOL voltage -528 -96 R0
WINDOW 123 0 0 Left 0
WINDOW 39 0 0 Left 0
SYMATTR InstName V5
SYMATTR Value 5
SYMBOL voltage -528 32 R0
WINDOW 123 0 0 Left 0
WINDOW 39 0 0 Left 0
SYMATTR InstName V6
SYMATTR Value 0
SYMBOL res -416 320 R90
WINDOW 0 10 8 VBottom 2
WINDOW 3 20 1 VTop 2
SYMATTR InstName R1
SYMATTR Value 499
SYMBOL res -416 384 R90
WINDOW 0 12 8 VBottom 2
WINDOW 3 21 2 VTop 2
SYMATTR InstName R2
SYMATTR Value 499
SYMBOL res -560 384 R90
WINDOW 0 0 56 VBottom 2
WINDOW 3 32 56 VTop 2
SYMATTR InstName R3
SYMATTR Value 499
SYMBOL res -640 320 R90
WINDOW 0 0 56 VBottom 2
WINDOW 3 32 56 VTop 2
SYMATTR InstName R4
SYMATTR Value 499
SYMBOL voltage -720 384 R0
WINDOW 123 0 0 Left 0
WINDOW 39 0 0 Left 0
WINDOW 0 36 32 Left 2
SYMATTR InstName V7
SYMATTR Value 2.5
SYMBOL voltage -832 336 R0
WINDOW 3 -170 98 Left 2
WINDOW 123 -60 128 Left 2
WINDOW 39 0 0 Left 0
WINDOW 0 -40 13 Left 2
SYMATTR Value SINE(2.5 5 1k)
SYMATTR Value2 AC 1
SYMATTR InstName V8
SYMBOL e 128 320 R0
SYMATTR InstName E1
SYMATTR Value 1
SYMBOL res -16 320 R0
SYMATTR InstName R6
SYMATTR Value 1k
SYMBOL voltage -928 -32 R0
WINDOW 123 0 0 Left 0
WINDOW 39 0 0 Left 0
SYMATTR InstName V4
SYMATTR Value 5
TEXT -864 648 Left 2 !.tran 1m
