Version 4
SHEET 1 1240 700
WIRE 432 -1216 416 -1216
WIRE 528 -1216 512 -1216
WIRE 544 -1216 528 -1216
WIRE 640 -1216 624 -1216
WIRE 144 -1152 144 -1168
WIRE 256 -1152 256 -1168
WIRE 528 -1120 528 -1216
WIRE 544 -1120 528 -1120
WIRE 640 -1104 640 -1216
WIRE 640 -1104 608 -1104
WIRE 752 -1104 640 -1104
WIRE 544 -1088 384 -1088
WIRE 752 -1088 752 -1104
WIRE 384 -1072 384 -1088
WIRE 144 -1056 144 -1072
WIRE 256 -1056 256 -1072
WIRE 560 -1056 560 -1072
WIRE 592 -1040 592 -1072
WIRE 752 -992 752 -1008
WIRE 384 -976 384 -992
WIRE 592 -944 592 -960
FLAG 144 -1168 +V
FLAG 144 -1056 0
FLAG 384 -976 0
FLAG 752 -1104 OUT
FLAG 384 -1088 IN
FLAG 560 -1136 +V
FLAG 256 -1168 -V
FLAG 560 -1056 -V
FLAG 416 -1216 0
FLAG 752 -992 0
FLAG 256 -1056 0
FLAG 592 -944 0
SYMBOL voltage 144 -1168 R0
WINDOW 123 0 0 Left 2
WINDOW 39 0 0 Left 2
SYMATTR InstName V1
SYMATTR Value 5
SYMBOL voltage 384 -1088 R0
WINDOW 123 24 146 Left 2
WINDOW 39 24 125 Left 2
WINDOW 0 17 18 Left 2
WINDOW 3 17 96 Left 2
SYMATTR InstName Vin
SYMATTR Value SINE(0 1 1K)
SYMBOL res 528 -1232 R90
WINDOW 0 0 56 VBottom 2
WINDOW 3 32 56 VTop 2
SYMATTR InstName R1
SYMATTR Value 10K
SYMBOL res 640 -1232 R90
WINDOW 0 0 56 VBottom 2
WINDOW 3 32 56 VTop 2
SYMATTR InstName R2
SYMATTR Value 10K
SYMBOL voltage 256 -1168 R0
WINDOW 123 24 146 Left 2
WINDOW 39 24 125 Left 2
SYMATTR InstName V2
SYMATTR Value -5
SYMBOL res 736 -1104 R0
SYMATTR InstName Rload
SYMATTR Value 10K
SYMBOL ADA4860 576 -1104 R0
WINDOW 0 17 -21 Left 2
WINDOW 3 25 19 Left 2
SYMATTR InstName U1
SYMBOL voltage 592 -1056 R0
WINDOW 123 24 132 Left 2
WINDOW 39 24 114 Left 2
SYMATTR InstName V3
SYMATTR Value -5
TEXT 696 -944 Left 2 !.tran 10m
