Version 4
SHEET 1 2844 1336
WIRE -112 -128 -112 -144
WIRE -416 -96 -416 -112
WIRE -304 -48 -320 -48
WIRE -208 -48 -224 -48
WIRE 48 -48 -16 -48
WIRE 144 -48 48 -48
WIRE 48 -16 48 -48
WIRE -416 0 -416 -16
WIRE 144 0 144 -48
WIRE -208 16 -272 16
WIRE 48 80 48 64
WIRE 144 80 144 64
WIRE -416 96 -416 80
WIRE -272 96 -272 16
WIRE -176 144 -176 128
WIRE -48 144 -48 128
WIRE -416 192 -416 176
WIRE -272 224 -272 176
FLAG -416 192 0
FLAG -416 0 0
FLAG -416 -112 +V
FLAG -416 80 -V
FLAG -320 -48 0
FLAG -176 144 -V
FLAG -112 -144 +V
FLAG -48 144 0
FLAG -272 224 0
FLAG 48 80 0
FLAG 144 80 0
SYMBOL voltage -416 -112 R0
WINDOW 123 0 0 Left 0
WINDOW 39 0 0 Left 0
SYMATTR InstName V1
SYMATTR Value 15
SYMBOL voltage -416 80 R0
WINDOW 123 0 0 Left 0
WINDOW 39 0 0 Left 0
SYMATTR InstName V2
SYMATTR Value -15
SYMBOL voltage -208 -48 M270
WINDOW 0 32 56 VTop 2
WINDOW 3 -32 56 VBottom 2
WINDOW 123 0 0 Left 0
WINDOW 39 0 0 Left 0
SYMATTR InstName V3
SYMATTR Value 10
SYMBOL voltage -272 80 R0
WINDOW 3 19 116 Left 2
SYMATTR Value pulse(0 3.3 0 1u 1u 5m 10m)
SYMATTR InstName V4
SYMBOL res 32 -32 R0
SYMATTR InstName R1
SYMATTR Value 300
SYMBOL cap 128 0 R0
SYMATTR InstName C1
SYMATTR Value 35p
SYMBOL ADG1311 -112 0 R0
SYMATTR InstName U1
TEXT 32 160 Left 2 !.tran 30m
