Version 4
SHEET 1 924 788
WIRE 256 -448 208 -448
WIRE 400 -448 336 -448
WIRE 256 -336 208 -336
WIRE 400 -336 400 -448
WIRE 400 -336 320 -336
WIRE 400 -240 400 -336
WIRE 128 -176 96 -176
WIRE 272 -176 208 -176
WIRE 16 -112 -16 -112
WIRE 272 -112 96 -112
WIRE -96 -48 -128 -48
WIRE 272 -48 -16 -48
WIRE -208 16 -240 16
WIRE 272 16 -128 16
WIRE 608 48 528 48
WIRE 704 48 608 48
WIRE 128 80 96 80
WIRE 272 80 208 80
WIRE 608 80 608 48
WIRE 704 96 704 48
WIRE 16 144 -16 144
WIRE 272 144 96 144
WIRE 608 192 608 160
WIRE 704 192 704 160
WIRE -96 208 -128 208
WIRE 272 208 -16 208
WIRE -208 272 -240 272
WIRE 272 272 -128 272
WIRE 128 336 80 336
WIRE 272 336 208 336
WIRE 640 336 528 336
WIRE 768 336 720 336
WIRE -16 400 -48 400
WIRE 272 400 64 400
WIRE -144 464 -176 464
WIRE 272 464 -64 464
WIRE 464 544 464 512
WIRE 224 592 176 592
WIRE 336 592 336 512
WIRE 336 592 288 592
WIRE 224 704 176 704
WIRE 336 704 336 592
WIRE 336 704 304 704
FLAG 208 -448 0
FLAG 208 -336 0
FLAG 96 -176 0
FLAG -16 -112 0
FLAG -128 -48 0
FLAG -240 16 0
FLAG 96 80 0
FLAG -16 144 0
FLAG -128 208 0
FLAG -240 272 0
FLAG 80 336 0
FLAG -48 400 0
FLAG -176 464 0
FLAG 176 704 0
FLAG 176 592 0
FLAG 768 336 0
FLAG 608 192 0
FLAG 704 192 0
FLAG 464 544 0
SYMBOL voltage 224 -176 R90
WINDOW 0 -32 56 VBottom 2
WINDOW 3 32 56 VTop 2
WINDOW 123 0 0 Left 0
WINDOW 39 0 0 Left 0
SYMATTR InstName V1
SYMATTR Value 1
SYMBOL voltage 112 -112 R90
WINDOW 0 -32 56 VBottom 2
WINDOW 3 32 56 VTop 2
WINDOW 123 0 0 Left 0
WINDOW 39 0 0 Left 0
SYMATTR InstName V2
SYMATTR Value 2
SYMBOL voltage 0 -48 R90
WINDOW 0 -32 56 VBottom 2
WINDOW 3 32 56 VTop 2
WINDOW 123 0 0 Left 0
WINDOW 39 0 0 Left 0
SYMATTR InstName V3
SYMATTR Value 3
SYMBOL voltage -112 16 R90
WINDOW 0 -32 56 VBottom 2
WINDOW 3 32 56 VTop 2
WINDOW 123 0 0 Left 0
WINDOW 39 0 0 Left 0
SYMATTR InstName V4
SYMATTR Value 4
SYMBOL voltage 224 80 R90
WINDOW 0 -32 56 VBottom 2
WINDOW 3 32 56 VTop 2
WINDOW 123 0 0 Left 0
WINDOW 39 0 0 Left 0
SYMATTR InstName V5
SYMATTR Value 1
SYMBOL voltage 112 144 R90
WINDOW 0 -32 56 VBottom 2
WINDOW 3 32 56 VTop 2
WINDOW 123 0 0 Left 0
WINDOW 39 0 0 Left 0
SYMATTR InstName V6
SYMATTR Value 2
SYMBOL voltage 0 208 R90
WINDOW 0 -32 56 VBottom 2
WINDOW 3 32 56 VTop 2
WINDOW 123 0 0 Left 0
WINDOW 39 0 0 Left 0
SYMATTR InstName V7
SYMATTR Value 3
SYMBOL voltage -112 272 R90
WINDOW 0 -32 56 VBottom 2
WINDOW 3 32 56 VTop 2
WINDOW 123 0 0 Left 0
WINDOW 39 0 0 Left 0
SYMATTR InstName V8
SYMATTR Value 4
SYMBOL voltage 224 336 R90
WINDOW 0 -32 56 VBottom 2
WINDOW 3 32 56 VTop 2
WINDOW 123 0 0 Left 0
WINDOW 39 0 0 Left 0
SYMATTR InstName V9
SYMATTR Value 0
SYMBOL voltage 80 400 R90
WINDOW 0 -32 56 VBottom 2
WINDOW 3 32 56 VTop 2
WINDOW 123 0 0 Left 0
WINDOW 39 0 0 Left 0
SYMATTR InstName V10
SYMATTR Value 0
SYMBOL voltage -48 464 R90
WINDOW 0 -32 56 VBottom 2
WINDOW 3 32 56 VTop 2
WINDOW 123 0 0 Left 0
WINDOW 39 0 0 Left 0
SYMATTR InstName V11
SYMATTR Value 0
SYMBOL voltage 352 -448 R90
WINDOW 0 -32 56 VBottom 2
WINDOW 3 32 56 VTop 2
WINDOW 123 0 0 Left 0
WINDOW 39 0 0 Left 0
SYMATTR InstName V12
SYMATTR Value 5
SYMBOL voltage 320 704 R90
WINDOW 0 -32 56 VBottom 2
WINDOW 3 32 56 VTop 2
WINDOW 123 0 0 Left 0
WINDOW 39 0 0 Left 0
SYMATTR InstName V13
SYMATTR Value -5
SYMBOL voltage 624 336 R270
WINDOW 0 32 56 VTop 2
WINDOW 3 -43 117 VBottom 2
WINDOW 123 0 0 Left 0
WINDOW 39 0 0 Left 0
SYMATTR InstName V14
SYMATTR Value PULSE(0 5 0 10n 10n 10u 20u)
SYMBOL res 592 64 R0
SYMATTR InstName R1
SYMATTR Value 300
SYMBOL cap 320 -352 R90
WINDOW 0 0 32 VBottom 2
WINDOW 3 32 32 VTop 2
SYMATTR InstName C1
SYMATTR Value 0.1µ
SYMBOL cap 288 576 R90
WINDOW 0 0 32 VBottom 2
WINDOW 3 32 32 VTop 2
SYMATTR InstName C2
SYMATTR Value 0.1µ
SYMBOL cap 688 96 R0
SYMATTR InstName C3
SYMATTR Value 35p
SYMBOL ADG1608 400 80 R0
SYMATTR InstName U1
TEXT -112 584 Left 2 !.tran 100u
