Version 4
SHEET 1 2844 1336
WIRE -752 -368 -800 -368
WIRE -1200 -336 -1200 -352
WIRE -800 -320 -800 -368
WIRE -1056 -256 -1072 -256
WIRE -896 -256 -976 -256
WIRE -1200 -240 -1200 -256
WIRE -656 -224 -704 -224
WIRE -544 -224 -576 -224
WIRE -1008 -192 -1072 -192
WIRE -896 -192 -928 -192
WIRE -1200 -144 -1200 -160
WIRE -896 -128 -960 -128
WIRE -624 -128 -704 -128
WIRE -624 -96 -624 -128
WIRE -960 -80 -960 -128
WIRE -1200 -48 -1200 -64
WIRE -736 0 -736 -16
WIRE -624 0 -624 -16
WIRE -960 16 -960 0
WIRE -864 16 -864 -16
WIRE -832 16 -864 16
FLAG -1200 -48 0
FLAG -1200 -240 0
FLAG -1200 -352 +V
FLAG -1200 -160 -V
FLAG -544 -224 0
FLAG -960 16 0
FLAG -1072 -256 0
FLAG -1072 -192 0
FLAG -752 -368 +V
FLAG -736 0 0
FLAG -832 16 -V
FLAG -624 0 0
SYMBOL voltage -1200 -352 R0
WINDOW 123 0 0 Left 0
WINDOW 39 0 0 Left 0
SYMATTR InstName V1
SYMATTR Value 15
SYMBOL voltage -1200 -160 R0
WINDOW 123 0 0 Left 0
WINDOW 39 0 0 Left 0
SYMATTR InstName V2
SYMATTR Value -15
SYMBOL voltage -960 -96 M0
SYMATTR InstName V4
SYMATTR Value pulse(0 3.3 0 1u 1u 5m 10m)
SYMBOL res -960 -240 M270
WINDOW 0 32 56 VTop 2
WINDOW 3 0 56 VBottom 2
SYMATTR InstName R1
SYMATTR Value 1K
SYMBOL res -912 -176 M270
WINDOW 0 32 56 VTop 2
WINDOW 3 0 56 VBottom 2
SYMATTR InstName R2
SYMATTR Value 1K
SYMBOL voltage -672 -224 R270
WINDOW 123 0 0 Left 0
WINDOW 39 0 0 Left 0
WINDOW 0 47 41 VRight 2
WINDOW 3 -46 -22 VRight 2
SYMATTR InstName V5
SYMATTR Value SINE(0 10 2k)
SYMBOL ADG1436 -800 -176 R0
SYMATTR InstName U1
SYMBOL voltage -624 -112 R0
WINDOW 123 0 0 Left 0
WINDOW 39 0 0 Left 0
SYMATTR InstName V3
SYMATTR Value 5
TEXT -672 -360 Left 2 !.tran 30m
