Version 4
SHEET 1 2844 1336
WIRE -112 -112 -112 -128
WIRE -512 -64 -512 -80
WIRE -336 -48 -368 -48
WIRE -208 -48 -256 -48
WIRE 48 -48 -16 -48
WIRE 48 -16 48 -48
WIRE -208 16 -336 16
WIRE -512 32 -512 16
WIRE -336 96 -336 16
WIRE 48 96 48 64
WIRE -512 128 -512 112
WIRE -160 144 -160 128
WIRE -64 144 -64 128
WIRE -512 224 -512 208
WIRE -336 240 -336 176
FLAG -512 224 0
FLAG -512 32 0
FLAG -512 -80 +V
FLAG -512 112 -V
FLAG -368 -48 0
FLAG -160 144 -V
FLAG -112 -128 +V
FLAG -64 144 0
FLAG -336 240 0
FLAG 48 96 0
SYMBOL voltage -512 -80 R0
WINDOW 123 0 0 Left 0
WINDOW 39 0 0 Left 0
SYMATTR InstName V1
SYMATTR Value 15
SYMBOL voltage -512 112 R0
WINDOW 123 0 0 Left 0
WINDOW 39 0 0 Left 0
SYMATTR InstName V2
SYMATTR Value -15
SYMBOL voltage -240 -48 M270
WINDOW 0 32 56 VTop 2
WINDOW 3 -32 56 VBottom 2
WINDOW 123 0 0 Left 0
WINDOW 39 0 0 Left 0
SYMATTR InstName V3
SYMATTR Value 10
SYMBOL voltage -336 80 R0
WINDOW 3 19 116 Left 2
SYMATTR Value pulse(0 3.3 0 1u 1u 5m 10m)
SYMATTR InstName V4
SYMBOL res 32 -32 R0
SYMATTR InstName R1
SYMATTR Value 1K
SYMBOL ADG1411 -112 0 R0
SYMATTR InstName U1
TEXT -32 240 Left 2 !.tran 30m
