Version 4
SHEET 1 1908 1252
WIRE -80 64 -80 32
WIRE -592 128 -672 128
WIRE -544 128 -592 128
WIRE -400 144 -480 144
WIRE -224 144 -400 144
WIRE 96 144 64 144
WIRE 240 144 96 144
WIRE 320 144 240 144
WIRE -544 160 -576 160
WIRE 240 192 240 144
WIRE -960 224 -960 208
WIRE -848 224 -848 208
WIRE 160 224 64 224
WIRE 240 304 240 272
WIRE -672 320 -672 128
WIRE -224 320 -672 320
WIRE 96 320 96 144
WIRE 96 320 64 320
WIRE -224 384 -256 384
WIRE 96 384 64 384
WIRE 112 384 96 384
WIRE 176 384 112 384
WIRE 304 384 256 384
WIRE 112 400 112 384
WIRE -896 448 -896 432
WIRE 304 480 304 464
WIRE 112 496 112 464
WIRE -176 528 -176 496
WIRE 16 528 16 496
WIRE -928 656 -928 640
FLAG -512 112 VDD
FLAG -512 176 VSS
FLAG -576 160 INP
FLAG -400 144 Amp_Out
FLAG -80 32 VDD
FLAG -176 528 VSS
FLAG 16 528 0
FLAG -848 224 0
FLAG -960 224 0
FLAG -960 128 VDD
FLAG -848 128 VSS
FLAG -256 384 IN
FLAG 96 384 FF
FLAG -592 128 INN
FLAG 320 144 Sw_Out
FLAG -896 448 0
FLAG -896 352 INP
FLAG 240 304 0
FLAG 160 224 0
FLAG -928 656 0
FLAG -928 560 IN
FLAG 112 496 0
FLAG 304 480 0
SYMBOL voltage -960 112 R0
WINDOW 123 0 0 Left 0
WINDOW 39 0 0 Left 0
SYMATTR InstName V3
SYMATTR Value 15
SYMBOL voltage -848 112 R0
WINDOW 123 0 0 Left 0
WINDOW 39 0 0 Left 0
SYMATTR InstName V4
SYMATTR Value -15
SYMBOL voltage -896 336 R0
WINDOW 123 0 0 Left 0
WINDOW 39 0 0 Left 0
SYMATTR InstName V5
SYMATTR Value 1
SYMBOL voltage 240 176 R0
WINDOW 123 0 0 Left 0
WINDOW 39 0 0 Left 0
WINDOW 3 24 106 Left 2
SYMATTR Value PULSE(2 14 0 100m 100m 100m 600m 1)
SYMATTR InstName VS
SYMBOL voltage -928 544 R0
WINDOW 123 0 0 Left 0
WINDOW 39 0 0 Left 0
SYMATTR InstName V6
SYMATTR Value 5
SYMBOL cap 96 400 R0
SYMATTR InstName C1
SYMATTR Value 5p
SYMBOL AutoGenerated\\ADG5401F -96 272 R0
SYMATTR InstName U1
SYMBOL Opamps\\ADA4625-1 -512 80 R0
SYMATTR InstName U2
SYMBOL res 272 368 R90
WINDOW 0 0 56 VBottom 2
WINDOW 3 32 56 VTop 2
SYMATTR InstName R1
SYMATTR Value 1k
SYMBOL voltage 304 368 R0
WINDOW 123 0 0 Left 0
WINDOW 39 0 0 Left 0
SYMATTR InstName V1
SYMATTR Value 5
TEXT -1032 48 Left 2 ;Switch Voltage Supplies
TEXT -1040 768 Left 2 !.tran 600m
TEXT -1032 736 Left 2 ;Simulation Commands
TEXT -904 768 Left 1 ;--->Transient Analysis
TEXT -1040 288 Left 2 ;Amplifier Input Voltage
TEXT -1032 496 Left 2 ;Digital Input Voltage
