Version 4
SHEET 1 2844 1336
WIRE 864 -432 864 -448
WIRE 864 -432 736 -432
WIRE 736 -400 736 -432
WIRE 864 -400 864 -432
WIRE 352 -336 320 -336
WIRE 656 -336 432 -336
WIRE 528 -272 496 -272
WIRE 656 -272 608 -272
WIRE 352 -208 320 -208
WIRE 656 -208 432 -208
WIRE 32 -176 32 -192
WIRE 144 -176 144 -192
WIRE 528 -144 496 -144
WIRE 656 -144 608 -144
WIRE 992 -112 944 -112
WIRE 1088 -112 1072 -112
WIRE 32 -80 32 -96
WIRE 144 -80 144 -96
WIRE 352 -80 320 -80
WIRE 656 -80 432 -80
WIRE 528 -16 496 -16
WIRE 656 -16 608 -16
WIRE 352 48 320 48
WIRE 656 48 432 48
WIRE 528 112 496 112
WIRE 656 112 608 112
WIRE 656 176 96 176
WIRE 960 176 944 176
WIRE 656 240 224 240
WIRE 960 240 944 240
WIRE 656 304 320 304
WIRE 960 304 944 304
WIRE 320 320 320 304
WIRE 720 384 720 368
WIRE 800 384 800 368
WIRE 800 384 720 384
WIRE 880 384 880 368
WIRE 800 400 800 384
WIRE 224 416 224 240
WIRE 320 416 320 400
WIRE 96 480 96 176
WIRE 224 512 224 496
WIRE 96 576 96 560
FLAG 32 -80 0
FLAG 144 -80 0
FLAG 144 -192 +V
FLAG 32 -192 -V
FLAG 800 400 -V
FLAG 864 -448 +V
FLAG 880 384 0
FLAG 96 576 0
FLAG 1088 -112 0
FLAG 960 176 +V
FLAG 224 512 0
FLAG 320 416 0
FLAG 496 -272 0
FLAG 496 -144 0
FLAG 320 -336 0
FLAG 320 -208 0
FLAG 496 -16 0
FLAG 496 112 0
FLAG 320 -80 0
FLAG 320 48 0
SYMBOL voltage 144 -192 R0
WINDOW 123 0 0 Left 0
WINDOW 39 0 0 Left 0
SYMATTR InstName V1
SYMATTR Value 15
SYMBOL voltage 32 -192 R0
WINDOW 123 0 0 Left 0
WINDOW 39 0 0 Left 0
SYMATTR InstName V2
SYMATTR Value -15
SYMBOL voltage 96 464 R0
WINDOW 123 24 138 Left 2
WINDOW 39 24 117 Left 2
SYMATTR InstName V4
SYMATTR Value PULSE(3.3 0 0 1u 1u 5m 10m)
SYMBOL Switches\\ADG5248F 800 -80 R0
SYMATTR InstName U1
SYMBOL res 1088 -128 R90
WINDOW 0 0 56 VBottom 2
WINDOW 3 32 56 VTop 2
SYMATTR InstName R1
SYMATTR Value 10Meg
SYMBOL voltage 320 304 R0
WINDOW 123 24 138 Left 2
WINDOW 39 24 117 Left 2
SYMATTR InstName V5
SYMATTR Value PULSE(3.3 0 0 1u 1u 20m 40m)
SYMBOL voltage 224 400 R0
WINDOW 123 24 138 Left 2
WINDOW 39 24 117 Left 2
SYMATTR InstName V6
SYMATTR Value PULSE(3.3 0 0 1u 1u 10m 20m)
SYMBOL voltage 624 -272 R90
WINDOW 0 -32 56 VBottom 2
WINDOW 3 32 56 VTop 2
WINDOW 123 0 0 Left 0
WINDOW 39 0 0 Left 0
SYMATTR InstName V3
SYMATTR Value SINE(0 2 2K)
SYMBOL voltage 624 -144 R90
WINDOW 0 -32 56 VBottom 2
WINDOW 3 32 56 VTop 2
WINDOW 123 0 0 Left 0
WINDOW 39 0 0 Left 0
SYMATTR InstName V7
SYMATTR Value SINE(0 4 4K)
SYMBOL voltage 448 -336 R90
WINDOW 0 -32 56 VBottom 2
WINDOW 3 32 56 VTop 2
WINDOW 123 0 0 Left 0
WINDOW 39 0 0 Left 0
SYMATTR InstName V8
SYMATTR Value SINE(0 1 1K)
SYMBOL voltage 448 -208 R90
WINDOW 0 -32 56 VBottom 2
WINDOW 3 32 56 VTop 2
WINDOW 123 0 0 Left 0
WINDOW 39 0 0 Left 0
SYMATTR InstName V9
SYMATTR Value SINE(0 3 3K)
SYMBOL voltage 624 -16 R90
WINDOW 0 -32 56 VBottom 2
WINDOW 3 32 56 VTop 2
WINDOW 123 0 0 Left 0
WINDOW 39 0 0 Left 0
SYMATTR InstName V10
SYMATTR Value SINE(0 6 6K)
SYMBOL voltage 624 112 R90
WINDOW 0 -32 56 VBottom 2
WINDOW 3 32 56 VTop 2
WINDOW 123 0 0 Left 0
WINDOW 39 0 0 Left 0
SYMATTR InstName V11
SYMATTR Value SINE(0 8 8K)
SYMBOL voltage 448 -80 R90
WINDOW 0 -32 56 VBottom 2
WINDOW 3 32 56 VTop 2
WINDOW 123 0 0 Left 0
WINDOW 39 0 0 Left 0
SYMATTR InstName V12
SYMATTR Value SINE(0 5 5K)
SYMBOL voltage 448 48 R90
WINDOW 0 -32 56 VBottom 2
WINDOW 3 32 56 VTop 2
WINDOW 123 0 0 Left 0
WINDOW 39 0 0 Left 0
SYMATTR InstName V13
SYMATTR Value SINE(0 7 7K)
TEXT 1008 352 Left 2 !.tran 40m
