Version 4
SHEET 1 2844 1336
WIRE -144 -80 -144 -112
WIRE -496 -16 -496 -32
WIRE -368 -16 -400 -16
WIRE -240 -16 -288 -16
WIRE 16 -16 -48 -16
WIRE 128 -16 16 -16
WIRE 16 16 16 -16
WIRE 128 32 128 -16
WIRE -240 48 -368 48
WIRE -496 80 -496 64
WIRE -368 112 -368 48
WIRE 16 112 16 96
WIRE 128 112 128 96
WIRE -496 176 -496 160
WIRE -192 176 -192 160
WIRE -96 176 -96 160
WIRE -496 272 -496 256
WIRE -368 272 -368 192
FLAG -496 272 0
FLAG -496 80 0
FLAG -496 -32 +V
FLAG -496 160 -V
FLAG -400 -16 0
FLAG -192 176 -V
FLAG -144 -112 +V
FLAG -96 176 0
FLAG -368 272 0
FLAG 16 112 0
FLAG 128 112 0
SYMBOL voltage -496 -32 R0
WINDOW 123 0 0 Left 0
WINDOW 39 0 0 Left 0
SYMATTR InstName V1
SYMATTR Value 15
SYMBOL voltage -496 160 R0
WINDOW 123 0 0 Left 0
WINDOW 39 0 0 Left 0
SYMATTR InstName V2
SYMATTR Value -15
SYMBOL voltage -272 -16 M270
WINDOW 0 32 56 VTop 2
WINDOW 3 -32 56 VBottom 2
WINDOW 123 0 0 Left 0
WINDOW 39 0 0 Left 0
SYMATTR InstName V3
SYMATTR Value 10
SYMBOL voltage -368 96 R0
WINDOW 3 17 129 Left 2
SYMATTR Value pulse(0 3.3 0 1u 1u 5m 10m)
SYMATTR InstName V4
SYMBOL res 0 0 R0
SYMATTR InstName R1
SYMATTR Value 300
SYMBOL Switches\\ADG5401 -144 32 R0
SYMATTR InstName U1
SYMBOL cap 112 32 R0
SYMATTR InstName C1
SYMATTR Value 1n
TEXT -344 264 Left 2 !.tran 30m
