Version 4
SHEET 1 2844 1336
WIRE -112 -112 -112 -128
WIRE -400 -48 -432 -48
WIRE -224 -48 -320 -48
WIRE -208 -48 -224 -48
WIRE 0 -48 -16 -48
WIRE 208 -48 0 -48
WIRE 304 -48 208 -48
WIRE 208 -16 208 -48
WIRE -208 0 -224 0
WIRE 128 0 -16 0
WIRE 304 0 304 -48
WIRE 128 16 128 0
WIRE -208 32 -224 32
WIRE 32 32 -16 32
WIRE 32 48 32 32
WIRE 208 80 208 64
WIRE 304 80 304 64
WIRE 128 96 128 80
WIRE -416 112 -416 96
WIRE -304 112 -304 96
WIRE -176 160 -176 144
WIRE -48 160 -48 144
WIRE 32 160 32 128
WIRE -416 208 -416 192
WIRE -304 208 -304 192
FLAG -304 208 0
FLAG -416 208 0
FLAG -416 96 +V
FLAG -304 96 -V
FLAG -432 -48 0
FLAG -176 160 -V
FLAG -112 -128 +V
FLAG -48 160 0
FLAG 208 80 0
FLAG 304 80 0
FLAG 128 96 0
FLAG -224 0 +V
FLAG -224 32 -V
FLAG 32 160 0
FLAG -224 -48 S
FLAG 0 -48 D
SYMBOL voltage -416 96 R0
WINDOW 123 0 0 Left 0
WINDOW 39 0 0 Left 0
SYMATTR InstName V1
SYMATTR Value 15
SYMBOL voltage -304 96 R0
WINDOW 123 0 0 Left 0
WINDOW 39 0 0 Left 0
SYMATTR InstName V2
SYMATTR Value -15
SYMBOL voltage -304 -48 M270
WINDOW 0 32 56 VTop 2
WINDOW 3 -32 56 VBottom 2
WINDOW 123 0 0 Left 0
WINDOW 39 0 0 Left 0
SYMATTR InstName V3
SYMATTR Value SINE(0 10 40k)
SYMBOL res 192 -32 R0
SYMATTR InstName R1
SYMATTR Value 300
SYMBOL cap 288 0 R0
SYMATTR InstName C1
SYMATTR Value 33p
SYMBOL cap 112 16 R0
SYMATTR InstName C2
SYMATTR Value 12p
SYMBOL ADG5462F -112 0 R0
SYMATTR InstName U1
SYMBOL voltage 32 32 R0
SYMATTR InstName V4
SYMATTR Value 3
TEXT -208 224 Left 2 !.tran 0.1m
