Version 4
SHEET 1 1684 740
WIRE -304 -272 -400 -272
WIRE -240 -272 -304 -272
WIRE -128 -272 -240 -272
WIRE 80 -272 -128 -272
WIRE -128 -256 -128 -272
WIRE -240 -240 -240 -272
WIRE 80 -224 80 -272
WIRE 240 -224 240 -256
WIRE 400 -224 400 -256
WIRE -400 -208 -400 -272
WIRE -128 -176 -128 -192
WIRE -240 -144 -240 -160
WIRE -64 -144 -240 -144
WIRE 576 -144 528 -144
WIRE -400 -32 -400 -128
WIRE -64 -32 -400 -32
WIRE 560 -32 528 -32
WIRE 640 -32 560 -32
WIRE -400 -16 -400 -32
WIRE 640 0 640 -32
WIRE -304 64 -304 -272
WIRE -288 64 -304 64
WIRE -176 64 -208 64
WIRE -64 64 -176 64
WIRE 560 64 560 -32
WIRE 560 64 528 64
WIRE -400 80 -400 64
WIRE -176 96 -176 64
WIRE 640 112 640 80
WIRE -64 160 -96 160
WIRE 560 160 560 64
WIRE 560 160 528 160
WIRE -176 192 -176 176
WIRE -96 256 -96 160
WIRE -64 256 -96 256
WIRE 560 256 560 160
WIRE 560 256 528 256
WIRE -64 352 -176 352
WIRE 688 352 528 352
WIRE 720 352 688 352
WIRE 832 352 720 352
WIRE 832 368 832 352
WIRE -176 384 -176 352
WIRE -64 448 -96 448
WIRE 576 448 528 448
WIRE 688 448 688 432
WIRE 688 448 656 448
WIRE 832 448 832 432
WIRE -176 480 -176 464
WIRE -96 544 -96 448
WIRE -64 544 -96 544
WIRE 688 544 688 448
WIRE 688 544 528 544
WIRE 80 624 80 608
WIRE 240 624 240 608
WIRE 400 624 400 608
WIRE 688 624 688 608
FLAG -400 80 0
FLAG 240 -256 VTEC
FLAG 400 -256 ITEC
FLAG 688 624 0
FLAG 80 624 0
FLAG 240 624 0
FLAG 400 624 0
FLAG 640 112 0
FLAG 832 448 0
FLAG -128 -176 0
FLAG -176 480 0
FLAG -240 -64 0
FLAG 720 352 TEC+
FLAG 688 448 TEC-
FLAG 560 -32 VIN
FLAG -176 192 0
SYMBOL res -416 -224 R0
SYMATTR InstName R3
SYMATTR Value 256.1k
SYMBOL res -416 -32 R0
SYMATTR InstName R4
SYMATTR Value 50.2k
SYMBOL ind 560 464 R270
WINDOW 0 32 56 VTop 2
WINDOW 3 5 56 VBottom 2
SYMATTR InstName L1
SYMATTR Value 1µ
SYMATTR SpiceLine Rser=1m
SYMBOL cap 672 544 R0
SYMATTR Value 10µ
SYMATTR InstName C2
SYMATTR SpiceLine Rser=2m
SYMBOL voltage 640 -16 R0
WINDOW 123 24 138 Left 2
WINDOW 39 24 117 Left 2
SYMATTR InstName V1
SYMATTR Value 5
SYMBOL cap 816 368 R0
SYMATTR InstName C1
SYMATTR Value .1µ
SYMATTR SpiceLine Rser=2m
SYMBOL cap -144 -256 R0
SYMATTR InstName C6
SYMATTR Value .1µ
SYMBOL ADN8834 240 128 R0
SYMATTR InstName U1
SYMBOL voltage -176 368 M0
WINDOW 123 24 138 Left 2
WINDOW 39 24 117 Left 2
SYMATTR InstName V2
SYMATTR Value SINE(1.25 200m 40 80m)
SYMBOL res -256 -256 R0
SYMATTR InstName R1
SYMATTR Value 6.65k
SYMBOL res -256 -160 R0
SYMATTR InstName R2
SYMATTR Value 10k
SYMBOL res 672 336 R0
SYMATTR InstName RTEC
SYMATTR Value 1.5
SYMBOL res -192 48 R90
WINDOW 0 0 56 VBottom 2
WINDOW 3 32 56 VTop 2
SYMATTR InstName R5
SYMATTR Value 10k
SYMBOL res -192 80 R0
SYMATTR InstName R6
SYMATTR Value 10k
TEXT 928 520 Left 2 !.tran 0.2 startup
