Version 4
SHEET 1 1096 680
WIRE 64 -16 -64 -16
WIRE 240 -16 64 -16
WIRE 272 -16 240 -16
WIRE 416 -16 352 -16
WIRE 448 -16 416 -16
WIRE 560 -16 512 -16
WIRE 624 -16 560 -16
WIRE 720 -16 624 -16
WIRE -64 0 -64 -16
WIRE 624 0 624 -16
WIRE 720 0 720 -16
WIRE 240 32 240 -16
WIRE -64 96 -64 80
WIRE 64 96 64 -16
WIRE 96 96 64 96
WIRE 624 96 624 64
WIRE 720 96 720 80
WIRE 416 128 416 -16
WIRE 416 128 384 128
WIRE 560 160 560 -16
WIRE 96 208 64 208
WIRE 560 256 560 240
WIRE 560 256 384 256
WIRE 560 272 560 256
WIRE -112 320 -176 320
WIRE 16 320 -32 320
WIRE 96 320 16 320
WIRE -176 336 -176 320
WIRE 16 336 16 320
WIRE 560 368 560 352
WIRE -176 416 -176 400
WIRE 16 416 16 400
WIRE 240 416 240 384
FLAG -64 96 0
FLAG -64 -16 IN
FLAG 720 -16 OUT
FLAG -176 416 0
FLAG 560 368 0
FLAG 624 96 0
FLAG 16 416 0
FLAG 64 208 0
FLAG 720 96 0
FLAG 240 416 0
SYMBOL res -16 304 R90
WINDOW 0 0 56 VBottom 2
WINDOW 3 32 56 VTop 2
SYMATTR InstName R1
SYMATTR Value 7.87K
SYMBOL cap -192 336 R0
SYMATTR InstName C1
SYMATTR Value 120n
SYMBOL res 544 256 R0
SYMATTR InstName R3
SYMATTR Value 10K
SYMBOL res 544 144 R0
SYMATTR InstName R4
SYMATTR Value 88.7K
SYMBOL VOLTAGE -64 -16 R0
WINDOW 123 0 0 Left 2
WINDOW 39 0 0 Left 2
SYMATTR InstName V1
SYMATTR Value 5
SYMBOL ind 256 0 R270
WINDOW 0 32 56 VTop 2
WINDOW 3 5 56 VBottom 2
SYMATTR InstName L1
SYMATTR Value 6.8µ
SYMATTR SpiceLine Rser=173m
SYMBOL cap 608 0 R0
SYMATTR InstName C2
SYMATTR Value 30µ
SYMATTR SpiceLine Rser=2m
SYMBOL cap 0 336 R0
SYMATTR InstName C3
SYMATTR Value 10p
SYMBOL res 704 -16 R0
SYMATTR InstName Rload
SYMATTR Value 30
SYMBOL ADP1614 240 208 R0
SYMATTR InstName U1
SYMBOL schottky 448 -32 M90
WINDOW 0 0 32 VBottom 2
WINDOW 3 32 32 VTop 2
SYMATTR InstName D1
SYMATTR Value MBRS340
SYMATTR Description Diode
SYMATTR Type diode
TEXT 496 472 Left 2 !.tran 5m startup
