Version 4
SHEET 1 1312 920
WIRE 48 -288 -64 -288
WIRE 208 -288 48 -288
WIRE 320 -288 208 -288
WIRE 560 -288 320 -288
WIRE -64 -272 -64 -288
WIRE 208 -272 208 -288
WIRE 560 -208 560 -288
WIRE -64 -176 -64 -192
WIRE 208 -176 208 -192
WIRE 320 -176 320 -288
WIRE 48 -128 48 -288
WIRE 112 -128 48 -128
WIRE 512 -128 432 -128
WIRE 112 -16 64 -16
WIRE 480 -16 432 -16
WIRE 480 0 480 -16
WIRE 64 96 64 -16
WIRE 64 96 -48 96
WIRE 112 96 64 96
WIRE 480 96 480 64
WIRE 480 96 432 96
WIRE 560 96 560 -112
WIRE 560 96 480 96
WIRE 624 96 560 96
WIRE 768 96 704 96
WIRE 864 96 768 96
WIRE 1040 96 864 96
WIRE -48 112 -48 96
WIRE 864 112 864 96
WIRE 1040 112 1040 96
WIRE -48 192 -48 176
WIRE 64 208 64 96
WIRE 112 208 64 208
WIRE 448 208 432 208
WIRE 560 208 560 96
WIRE 560 208 528 208
WIRE 864 208 864 176
WIRE 1040 208 1040 192
WIRE 560 240 560 208
WIRE 768 256 768 96
WIRE 32 320 16 320
WIRE 112 320 96 320
WIRE 512 320 432 320
WIRE 768 384 768 336
WIRE 560 432 560 336
WIRE 560 432 432 432
WIRE 560 448 560 432
WIRE 112 544 64 544
WIRE 464 544 432 544
WIRE 608 544 528 544
WIRE 768 544 768 448
WIRE 768 544 672 544
WIRE 272 608 272 592
WIRE 64 656 64 544
WIRE 768 656 768 544
WIRE 768 656 64 656
WIRE 768 672 768 656
WIRE 768 768 768 752
FLAG 768 768 0
FLAG 560 448 0
FLAG 864 208 0
FLAG 1040 208 0
FLAG 272 608 0
FLAG -48 192 0
FLAG -64 -176 0
FLAG -64 -288 IN
FLAG 1040 96 OUT
FLAG 16 320 0
SYMBOL res 752 656 R0
SYMATTR InstName Rc1
SYMATTR Value 8.78K
SYMBOL cap 464 560 R270
WINDOW 0 42 34 VTop 2
WINDOW 3 0 32 VBottom 2
SYMATTR InstName Cc1||Rc4
SYMATTR Value 39p
SYMBOL cap 608 560 R270
WINDOW 0 45 32 VTop 2
WINDOW 3 0 32 VBottom 2
WINDOW 39 -28 32 VBottom 2
SYMATTR InstName Cc3||Rc5
SYMATTR Value 8.2p
SYMATTR SpiceLine Rpar=267K
SYMBOL res 752 240 R0
SYMATTR InstName Rc3
SYMATTR Value 8.25K
SYMBOL ind 608 112 R270
WINDOW 0 32 56 VTop 2
WINDOW 3 5 56 VBottom 2
WINDOW 39 -23 56 VBottom 2
SYMATTR InstName L1
SYMATTR Value 1.5µ
SYMATTR SpiceLine Rser=5.1m
SYMBOL cap 848 112 R0
WINDOW 123 28 62 Left 2
WINDOW 3 43 33 Left 2
SYMATTR Value2 Rser=7m
SYMATTR InstName C1
SYMATTR Value 330µ
SYMBOL res 1024 96 R0
SYMATTR InstName Rload
SYMATTR Value 1
SYMBOL nmos 512 240 R0
SYMATTR InstName M1
SYMATTR Value BSC100N03LS
SYMBOL nmos 512 -208 R0
SYMATTR InstName M2
SYMATTR Value BSC080N03MS
SYMBOL res 544 192 R90
WINDOW 0 0 56 VBottom 2
WINDOW 3 32 56 VTop 2
SYMATTR InstName R2
SYMATTR Value 2K
SYMBOL cap 464 0 R0
SYMATTR InstName C2
SYMATTR Value 100n
SYMBOL res 192 -288 R0
SYMATTR InstName Rr
SYMATTR Value 162K
SYMBOL cap 752 384 R0
WINDOW 0 84 -8 Top 2
WINDOW 3 63 50 Bottom 2
WINDOW 39 100 76 Bottom 2
SYMATTR InstName Rc2||Cc1
SYMATTR Value 150p
SYMATTR SpiceLine Rpar=9.53k
SYMBOL cap -64 112 R0
SYMATTR InstName Cvcc
SYMATTR Value 1µ
SYMBOL VOLTAGE -64 -288 R0
WINDOW 123 0 0 Left 0
WINDOW 39 0 0 Left 0
SYMATTR InstName V1
SYMATTR Value 12
SYMBOL ADP1851 272 208 R0
WINDOW 0 0 -208 Center 2
SYMATTR InstName U1
SYMBOL cap 96 304 R90
WINDOW 0 0 32 VBottom 2
WINDOW 3 32 32 VTop 2
SYMATTR InstName C3
SYMATTR Value 2n
TEXT 1096 848 Left 2 !.tran 400u startup
