Version 4
SHEET 1 1664 920
WIRE 48 -288 -64 -288
WIRE 208 -288 48 -288
WIRE 320 -288 208 -288
WIRE 560 -288 320 -288
WIRE -64 -272 -64 -288
WIRE 208 -272 208 -288
WIRE 560 -208 560 -288
WIRE -64 -176 -64 -192
WIRE 208 -176 208 -192
WIRE 320 -176 320 -288
WIRE 48 -128 48 -288
WIRE 112 -128 48 -128
WIRE 512 -128 432 -128
WIRE 112 -16 64 -16
WIRE 480 -16 432 -16
WIRE 480 0 480 -16
WIRE 64 96 64 -16
WIRE 64 96 -48 96
WIRE 112 96 64 96
WIRE 480 96 480 64
WIRE 480 96 432 96
WIRE 560 96 560 -112
WIRE 560 96 480 96
WIRE 624 96 560 96
WIRE 768 96 704 96
WIRE 912 96 768 96
WIRE 1056 96 912 96
WIRE -48 112 -48 96
WIRE 912 112 912 96
WIRE 1056 112 1056 96
WIRE -48 192 -48 176
WIRE 64 208 64 96
WIRE 112 208 64 208
WIRE 448 208 432 208
WIRE 560 208 560 96
WIRE 560 208 528 208
WIRE 768 208 768 96
WIRE 912 208 912 176
WIRE 1056 208 1056 192
WIRE 560 240 560 208
WIRE 32 320 16 320
WIRE 112 320 96 320
WIRE 512 320 432 320
WIRE 768 352 768 288
WIRE 864 352 768 352
WIRE 768 400 768 352
WIRE 864 400 864 352
WIRE 560 432 560 336
WIRE 560 432 432 432
WIRE 560 448 560 432
WIRE 112 544 64 544
WIRE 464 544 432 544
WIRE 560 544 528 544
WIRE 640 544 560 544
WIRE 768 544 768 480
WIRE 768 544 704 544
WIRE 864 544 864 464
WIRE 864 544 768 544
WIRE 272 608 272 592
WIRE 560 640 560 544
WIRE 624 640 560 640
WIRE 768 640 768 544
WIRE 768 640 704 640
WIRE 64 704 64 544
WIRE 768 704 768 640
WIRE 768 704 64 704
WIRE 768 720 768 704
WIRE 768 816 768 800
FLAG 768 816 0
FLAG 560 448 0
FLAG 912 208 0
FLAG 1056 208 0
FLAG 272 608 0
FLAG -48 192 0
FLAG -64 -176 0
FLAG -64 -288 IN
FLAG 1056 96 OUT
FLAG 16 320 0
SYMBOL res 752 704 R0
SYMATTR InstName Rc1
SYMATTR Value 8.87k
SYMBOL cap 464 560 R270
WINDOW 0 42 34 VTop 2
WINDOW 3 0 32 VBottom 2
SYMATTR InstName C5
SYMATTR Value 39p
SYMBOL cap 640 560 R270
WINDOW 0 45 32 VTop 2
WINDOW 3 0 32 VBottom 2
WINDOW 39 -28 32 VBottom 2
SYMATTR InstName C6
SYMATTR Value 8.2p
SYMBOL res 752 192 R0
SYMATTR InstName Rc3
SYMATTR Value 8.25K
SYMBOL ind 608 112 R270
WINDOW 0 32 56 VTop 2
WINDOW 3 5 56 VBottom 2
WINDOW 39 -23 56 VBottom 2
SYMATTR InstName L1
SYMATTR Value 1µ
SYMATTR SpiceLine Rser=5.1m
SYMBOL cap 896 112 R0
WINDOW 123 28 62 Left 2
WINDOW 3 43 33 Left 2
SYMATTR Value2 Rser=7m
SYMATTR Value 330µ
SYMATTR InstName C1
SYMBOL res 1040 96 R0
SYMATTR InstName Rload
SYMATTR Value 0.18
SYMBOL nmos 512 240 R0
SYMATTR InstName M1
SYMATTR Value BSC0902NSI
SYMBOL nmos 512 -208 R0
SYMATTR InstName M2
SYMATTR Value BSC080N03MS
SYMBOL res 544 192 R90
WINDOW 0 0 56 VBottom 2
WINDOW 3 32 56 VTop 2
SYMATTR InstName R2
SYMATTR Value 1.5k
SYMBOL cap 464 0 R0
SYMATTR InstName C2
SYMATTR Value 100n
SYMBOL res 192 -288 R0
SYMATTR InstName Rr
SYMATTR Value 162K
SYMBOL cap -64 112 R0
SYMATTR InstName Cvcc
SYMATTR Value 1µ
SYMBOL VOLTAGE -64 -288 R0
WINDOW 123 0 0 Left 0
WINDOW 39 0 0 Left 0
SYMATTR InstName V1
SYMATTR Value 12
SYMBOL cap 96 304 R90
WINDOW 0 0 32 VBottom 2
WINDOW 3 32 32 VTop 2
SYMATTR InstName C3
SYMATTR Value 2n
SYMBOL res 752 384 R0
SYMATTR InstName R1
SYMATTR Value 9.53k
SYMBOL cap 848 400 R0
SYMATTR InstName C4
SYMATTR Value 150p
SYMBOL res 720 624 R90
WINDOW 0 0 56 VBottom 2
WINDOW 3 32 56 VTop 2
SYMATTR InstName R3
SYMATTR Value 267k
SYMBOL ADP1851 272 208 R0
SYMATTR InstName U1
TEXT 808 664 Left 2 !.tran .5m startup
