Version 4
SHEET 1 884 680
WIRE 496 16 256 16
WIRE 256 48 256 16
WIRE 48 96 -32 96
WIRE 128 96 48 96
WIRE 160 96 128 96
WIRE 384 96 352 96
WIRE 496 96 496 16
WIRE 496 96 384 96
WIRE 576 96 496 96
WIRE -32 112 -32 96
WIRE 48 112 48 96
WIRE 384 112 384 96
WIRE 496 112 496 96
WIRE 576 112 576 96
WIRE -32 208 -32 192
WIRE 48 208 48 176
WIRE 128 208 128 96
WIRE 160 208 128 208
WIRE 384 208 384 192
WIRE 384 208 352 208
WIRE 496 208 496 176
WIRE 576 208 576 192
WIRE 384 224 384 208
WIRE 256 272 256 256
WIRE 384 320 384 304
FLAG -32 208 0
FLAG 256 272 0
FLAG 384 320 0
FLAG 496 208 0
FLAG 576 208 0
FLAG 576 96 OUT
FLAG -32 96 IN
FLAG 48 208 0
SYMBOL voltage -32 96 R0
WINDOW 123 24 130 Left 2
WINDOW 39 0 0 Left 0
SYMATTR InstName V1
SYMATTR Value 5.5
SYMBOL res 368 96 R0
SYMATTR InstName R1
SYMATTR Value 187k
SYMBOL res 368 208 R0
SYMATTR InstName R2
SYMATTR Value 59k
SYMBOL cap 480 112 R0
SYMATTR InstName C2
SYMATTR Value 4.7µ
SYMBOL res 560 96 R0
SYMATTR InstName Rload
SYMATTR Value 100
SYMBOL cap 32 112 R0
SYMATTR InstName C1
SYMATTR Value 4.7µ
SYMBOL ADP1708 256 160 R0
SYMATTR InstName U1
TEXT -8 304 Left 2 !.tran 10m startup
