Version 4
SHEET 1 1096 680
WIRE 64 -16 -80 -16
WIRE 240 -16 64 -16
WIRE 288 -16 240 -16
WIRE 416 -16 368 -16
WIRE 464 -16 416 -16
WIRE 560 -16 528 -16
WIRE 624 -16 560 -16
WIRE 720 -16 624 -16
WIRE -80 0 -80 -16
WIRE 624 0 624 -16
WIRE 720 0 720 -16
WIRE 240 32 240 -16
WIRE 560 64 560 -16
WIRE -80 96 -80 80
WIRE 64 96 64 -16
WIRE 96 96 64 96
WIRE 416 96 416 -16
WIRE 416 96 384 96
WIRE 624 96 624 64
WIRE 720 96 720 80
WIRE 0 208 -16 208
WIRE 96 208 80 208
WIRE 560 208 560 144
WIRE 560 208 384 208
WIRE 560 240 560 208
WIRE 96 320 16 320
WIRE 432 320 384 320
WIRE 16 352 16 320
WIRE 560 368 560 320
WIRE 432 384 432 320
WIRE 240 416 240 384
WIRE 16 448 16 416
WIRE 432 496 432 448
FLAG -80 96 0
FLAG -80 -16 IN
FLAG 720 -16 OUT
FLAG 560 368 0
FLAG 624 96 0
FLAG 432 496 0
FLAG -16 208 0
FLAG 720 96 0
FLAG 240 416 0
FLAG 16 448 0
SYMBOL res 544 224 R0
SYMATTR InstName R3
SYMATTR Value 10K
SYMBOL res 544 48 R0
SYMATTR InstName R4
SYMATTR Value 71.5K
SYMBOL VOLTAGE -80 -16 R0
WINDOW 123 0 0 Left 2
WINDOW 39 0 0 Left 2
SYMATTR InstName V1
SYMATTR Value 5
SYMBOL ind 272 0 R270
WINDOW 0 32 56 VTop 2
WINDOW 3 5 56 VBottom 2
SYMATTR InstName L1
SYMATTR Value 15µ
SYMATTR SpiceLine Rser=200m
SYMBOL cap 608 0 R0
SYMATTR InstName C2
SYMATTR Value 35µ
SYMATTR SpiceLine Rser=2m
SYMBOL cap 416 384 R0
WINDOW 39 24 80 Left 2
SYMATTR SpiceLine Rser=12.1k Cpar=10p
SYMATTR InstName C3
SYMATTR Value 33n
SYMBOL res 704 -16 R0
SYMATTR InstName Rload
SYMATTR Value 20
SYMBOL schottky 464 -32 M90
WINDOW 0 0 32 VBottom 2
WINDOW 3 32 32 VTop 2
SYMATTR InstName D1
SYMATTR Value MBRS340
SYMATTR Description Diode
SYMATTR Type diode
SYMBOL res 96 192 R90
WINDOW 0 0 56 VBottom 2
WINDOW 3 32 56 VTop 2
SYMATTR InstName R2
SYMATTR Value 60.4K
SYMBOL cap 0 352 R0
SYMATTR InstName C1
SYMATTR Value 47n
SYMBOL ADP1614-1.3 240 208 R0
SYMATTR InstName U2
TEXT 128 -96 Left 2 !.tran 12m startup
