Version 4
SHEET 1 880 680
WIRE -32 80 -48 80
WIRE 48 80 -32 80
WIRE 64 80 48 80
WIRE 304 80 256 80
WIRE 336 80 304 80
WIRE 384 80 336 80
WIRE -48 96 -48 80
WIRE 304 96 304 80
WIRE 304 176 304 160
WIRE 384 176 384 160
WIRE -48 192 -48 176
WIRE 48 192 48 80
WIRE 64 192 48 192
WIRE 272 192 256 192
FLAG -48 192 0
FLAG 304 176 0
FLAG 272 192 0
FLAG 384 176 0
FLAG -32 80 IN
FLAG 336 80 OUT
SYMBOL cap 288 96 R0
SYMATTR InstName C1
SYMATTR Value 1µ
SYMBOL voltage -48 80 R0
SYMATTR InstName V1
SYMATTR Value 3.6
SYMBOL res 368 64 R0
SYMATTR InstName RLOAD
SYMATTR Value 3.3
SYMBOL ADP172-1 160 192 R0
SYMATTR InstName U1
TEXT 160 256 Center 2 !.tran 2m startup
