Version 4
SHEET 1 2808 1464
WIRE 1824 880 1696 880
WIRE 1984 880 1824 880
WIRE 1696 896 1696 880
WIRE 1984 896 1984 880
WIRE 1696 992 1696 976
WIRE 1824 1024 1824 880
WIRE 1856 1024 1824 1024
WIRE 2160 1024 2112 1024
WIRE 2256 1024 2160 1024
WIRE 2160 1040 2160 1024
WIRE 2256 1040 2256 1024
WIRE 2160 1136 2160 1104
WIRE 2256 1136 2256 1120
WIRE 1984 1168 1984 1152
FLAG 2256 1024 OUT
FLAG 2256 1136 0
FLAG 1696 992 0
FLAG 1696 880 IN
FLAG 1984 1168 0
FLAG 2160 1136 0
SYMBOL VOLTAGE 1696 880 R0
SYMATTR InstName V1
SYMATTR Value 5
SYMBOL res 2240 1024 R0
SYMATTR InstName Rload
SYMATTR Value 18
SYMBOL PowerProducts\\ADP150-1.8 1984 1024 R0
SYMATTR InstName U1
SYMBOL cap 2144 1040 R0
SYMATTR InstName C1
SYMATTR Value 1µ
TEXT 2144 1200 Left 2 !.tran 500u startup
