Version 4
SHEET 1 884 680
WIRE 128 96 16 96
WIRE 160 96 128 96
WIRE 448 96 352 96
WIRE 528 96 448 96
WIRE 16 112 16 96
WIRE 448 112 448 96
WIRE 528 112 528 96
WIRE 16 208 16 192
WIRE 448 208 448 176
WIRE 528 208 528 192
WIRE 128 224 128 96
WIRE 160 224 128 224
WIRE 368 224 352 224
FLAG 16 208 0
FLAG 368 224 0
FLAG 448 208 0
FLAG 528 208 0
FLAG 528 96 OUT
FLAG 16 96 IN
SYMBOL voltage 16 96 R0
WINDOW 123 24 130 Left 2
WINDOW 39 0 0 Left 0
SYMATTR InstName V1
SYMATTR Value 1.65
SYMBOL cap 432 112 R0
SYMATTR InstName C2
SYMATTR Value 1µ
SYMBOL res 512 96 R0
SYMATTR InstName Rload
SYMATTR Value 100
SYMBOL ADP198 256 144 R0
SYMATTR InstName U1
TEXT 376 288 Left 2 !.tran 10m startup
