Version 4
SHEET 1 880 680
WIRE 128 -16 32 -16
WIRE 320 -16 208 -16
WIRE 32 80 32 -16
WIRE 32 80 -48 80
WIRE 48 80 32 80
WIRE 320 80 320 -16
WIRE 320 80 304 80
WIRE -48 96 -48 80
WIRE 32 176 32 80
WIRE 48 176 32 176
WIRE 384 176 304 176
WIRE 544 176 384 176
WIRE -48 192 -48 176
WIRE 384 192 384 176
WIRE 544 192 544 176
WIRE 48 272 32 272
WIRE 320 272 304 272
WIRE 384 288 384 256
WIRE 544 288 544 272
FLAG -48 80 IN
FLAG 544 176 OUT
FLAG 32 272 0
FLAG -48 192 0
FLAG 544 288 0
FLAG 320 272 0
FLAG 384 288 0
SYMBOL voltage -48 80 R0
SYMATTR InstName V1
SYMATTR Value 0.9
SYMBOL cap 368 192 R0
WINDOW 3 40 38 Left 2
WINDOW 39 25 61 Left 2
SYMATTR Value 6µ
SYMATTR SpiceLine Rser=2m
SYMATTR InstName Cout
SYMBOL ind 112 0 R270
WINDOW 0 32 56 VTop 2
WINDOW 3 7 58 VBottom 2
WINDOW 39 -45 59 VTop 2
SYMATTR InstName L1
SYMATTR Value 2.2µ
SYMATTR SpiceLine Rser=22m
SYMBOL res 528 176 R0
SYMATTR InstName Rload
SYMATTR Value 22
SYMBOL ADP1606 176 176 R0
SYMATTR InstName U1
TEXT 384 360 Left 2 !.tran 1m startup
