Version 4
SHEET 1 1416 1824
WIRE -128 -336 -224 -336
WIRE 208 -336 -128 -336
WIRE 336 -336 208 -336
WIRE 560 -336 336 -336
WIRE 1200 -336 560 -336
WIRE -224 -320 -224 -336
WIRE 208 -320 208 -336
WIRE -224 -224 -224 -240
WIRE 208 -224 208 -240
WIRE 336 -224 336 -336
WIRE 560 -208 560 -336
WIRE -128 -128 -128 -336
WIRE 112 -128 -128 -128
WIRE 512 -128 432 -128
WIRE 32 -16 0 -16
WIRE 112 -16 96 -16
WIRE 480 -16 432 -16
WIRE 480 0 480 -16
WIRE -64 96 -80 96
WIRE 32 96 16 96
WIRE 112 96 96 96
WIRE 480 96 480 64
WIRE 480 96 432 96
WIRE 560 96 560 -112
WIRE 560 96 480 96
WIRE 624 96 560 96
WIRE 768 96 704 96
WIRE 880 96 768 96
WIRE 1040 96 880 96
WIRE 880 112 880 96
WIRE 1040 112 1040 96
WIRE 768 176 768 96
WIRE 448 208 432 208
WIRE 560 208 560 96
WIRE 560 208 528 208
WIRE 880 208 880 176
WIRE 1040 208 1040 192
WIRE 560 240 560 208
WIRE 768 304 768 256
WIRE 112 320 32 320
WIRE 480 320 432 320
WIRE 512 320 480 320
WIRE 480 336 480 320
WIRE 768 400 768 368
WIRE 768 400 672 400
WIRE 768 416 768 400
WIRE 32 432 32 320
WIRE 112 432 32 432
WIRE 480 432 480 416
WIRE 480 432 432 432
WIRE 560 432 560 336
WIRE 560 432 480 432
WIRE 560 448 560 432
WIRE 768 512 768 496
WIRE 32 544 32 432
WIRE 112 544 32 544
WIRE 672 544 672 400
WIRE 672 544 432 544
WIRE 1200 576 1200 -336
WIRE 1200 576 560 576
WIRE 32 656 32 544
WIRE 112 656 32 656
WIRE 512 656 432 656
WIRE 32 768 32 656
WIRE 112 768 32 768
WIRE 480 768 432 768
WIRE 480 784 480 768
WIRE 32 880 32 768
WIRE 112 880 32 880
WIRE 480 880 480 848
WIRE 480 880 432 880
WIRE 560 880 560 672
WIRE 560 880 480 880
WIRE 624 880 560 880
WIRE 768 880 704 880
WIRE 864 880 768 880
WIRE 1040 880 864 880
WIRE 32 896 32 880
WIRE 864 896 864 880
WIRE 1040 896 1040 880
WIRE 32 976 32 960
WIRE 448 992 432 992
WIRE 560 992 560 880
WIRE 560 992 528 992
WIRE 864 992 864 960
WIRE 1040 992 1040 976
WIRE 560 1024 560 992
WIRE 768 1056 768 880
WIRE -128 1104 -128 -128
WIRE 112 1104 -128 1104
WIRE 480 1104 432 1104
WIRE 512 1104 480 1104
WIRE 480 1120 480 1104
WIRE 768 1184 768 1136
WIRE 0 1216 -64 1216
WIRE 112 1216 64 1216
WIRE 480 1216 480 1200
WIRE 480 1216 432 1216
WIRE 560 1216 560 1120
WIRE 560 1216 480 1216
WIRE 560 1232 560 1216
WIRE -64 1328 -80 1328
WIRE 32 1328 16 1328
WIRE 112 1328 96 1328
WIRE 768 1328 768 1248
WIRE 768 1328 432 1328
WIRE 768 1344 768 1328
WIRE 208 1440 208 1424
WIRE 768 1440 768 1424
WIRE -128 1472 -128 1104
WIRE -16 1472 -128 1472
WIRE 336 1472 336 1424
WIRE 336 1472 64 1472
FLAG 768 512 0
FLAG 560 448 0
FLAG 880 208 0
FLAG 1040 208 0
FLAG -224 -224 0
FLAG -224 -336 IN
FLAG 1040 96 OUT1
FLAG -80 96 0
FLAG 768 1440 0
FLAG 560 1232 0
FLAG 864 992 0
FLAG 1040 992 0
FLAG 1040 880 OUT2
FLAG -80 1328 0
FLAG 32 976 0
FLAG -64 1216 0
FLAG 0 -16 0
FLAG 208 1440 0
SYMBOL res 752 400 R0
SYMATTR InstName Rc1
SYMATTR Value 29.4K
SYMBOL cap 96 112 M270
WINDOW 0 42 34 VTop 2
WINDOW 3 0 32 VBottom 2
SYMATTR InstName Cc2
SYMATTR Value 500p
SYMBOL res 752 160 R0
SYMATTR InstName Rc3
SYMATTR Value 93.1K
SYMBOL ind 608 112 R270
WINDOW 0 32 56 VTop 2
WINDOW 3 5 56 VBottom 2
WINDOW 39 -23 56 VBottom 2
SYMATTR InstName L1
SYMATTR Value 2.2µ
SYMATTR SpiceLine Rser=5.1m
SYMBOL cap 864 112 R0
WINDOW 123 24 84 Left 2
SYMATTR Value2 Rser=7m
SYMATTR InstName C1
SYMATTR Value 178µ
SYMBOL res 1024 96 R0
SYMATTR InstName Rload1
SYMATTR Value 2
SYMBOL nmos 512 240 R0
SYMATTR InstName M1
SYMATTR Value BSZ0901NS
SYMBOL nmos 512 -208 R0
SYMATTR InstName M2
SYMATTR Value BSC080N03MS
SYMBOL res 544 192 R90
WINDOW 0 0 56 VBottom 2
WINDOW 3 32 56 VTop 2
SYMATTR InstName R2
SYMATTR Value 2K
SYMBOL cap 464 0 R0
SYMATTR InstName C2
SYMATTR Value 100n
SYMBOL res 192 -336 R0
SYMATTR InstName Rr1
SYMATTR Value 150K
SYMBOL cap 752 304 R0
WINDOW 3 41 35 Left 2
WINDOW 39 29 65 Left 2
SYMATTR InstName Cc6
SYMATTR Value 150p
SYMATTR SpiceLine Rpar=1.91K
SYMBOL VOLTAGE -224 -336 R0
WINDOW 123 0 0 Left 0
WINDOW 39 0 0 Left 0
SYMATTR InstName V1
SYMATTR Value 12
SYMBOL ADP1850 272 592 R0
WINDOW 0 0 -192 Center 2
SYMATTR InstName U1
SYMBOL res 752 1328 R0
SYMATTR InstName Rc2
SYMATTR Value 29.4K
SYMBOL cap 96 1344 M270
WINDOW 0 42 34 VTop 2
WINDOW 3 0 32 VBottom 2
SYMATTR InstName Cc1
SYMATTR Value 500p
SYMBOL res 752 1040 R0
SYMATTR InstName Rc4
SYMATTR Value 93.1K
SYMBOL ind 608 896 R270
WINDOW 0 32 56 VTop 2
WINDOW 3 5 56 VBottom 2
WINDOW 39 -23 56 VBottom 2
SYMATTR InstName L2
SYMATTR Value 1.5µ
SYMATTR SpiceLine Rser=5.1m
SYMBOL cap 848 896 R0
WINDOW 123 33 55 Left 2
WINDOW 3 40 34 Left 2
SYMATTR Value2 Rser=7m
SYMATTR InstName C3
SYMATTR Value 178µ
SYMBOL res 1024 880 R0
SYMATTR InstName Rload2
SYMATTR Value 2
SYMBOL nmos 512 1024 R0
SYMATTR InstName M3
SYMATTR Value BSZ0901NS
SYMBOL nmos 512 576 R0
SYMATTR InstName M4
SYMATTR Value BSC080N03MS
SYMBOL res 544 976 R90
WINDOW 0 0 56 VBottom 2
WINDOW 3 32 56 VTop 2
SYMATTR InstName R1
SYMATTR Value 2K
SYMBOL cap 464 784 R0
SYMATTR InstName C4
SYMATTR Value 100n
SYMBOL cap 752 1184 R0
WINDOW 3 41 38 Left 2
WINDOW 39 26 58 Left 2
SYMATTR InstName Cc5
SYMATTR Value 220p
SYMATTR SpiceLine Rpar=1.91K
SYMBOL res 32 80 R90
WINDOW 0 0 56 VBottom 2
WINDOW 3 32 56 VTop 2
SYMATTR InstName Rc6
SYMATTR Value 133K
SYMBOL res 80 1456 R90
WINDOW 0 0 56 VBottom 2
WINDOW 3 32 56 VTop 2
SYMATTR InstName Rr2
SYMATTR Value 150K
SYMBOL cap 16 896 R0
SYMATTR InstName C5
SYMATTR Value 1µ
SYMBOL cap 64 1200 R90
WINDOW 0 0 32 VBottom 2
WINDOW 3 32 32 VTop 2
SYMATTR InstName C6
SYMATTR Value 2n
SYMBOL cap 96 -32 R90
WINDOW 0 0 32 VBottom 2
WINDOW 3 32 32 VTop 2
SYMATTR InstName C7
SYMATTR Value 2n
SYMBOL res 32 1312 R90
WINDOW 0 0 56 VBottom 2
WINDOW 3 32 56 VTop 2
SYMATTR InstName Rc5
SYMATTR Value 133K
SYMBOL res 464 320 R0
SYMATTR InstName R3
SYMATTR Value 22K
SYMBOL res 464 1104 R0
SYMATTR InstName R4
SYMATTR Value 22K
TEXT 1024 1408 Left 2 !.tran 400u startup
