Version 4
SHEET 1 880 692
WIRE 160 96 48 96
WIRE 176 96 160 96
WIRE 464 96 400 96
WIRE 624 96 544 96
WIRE 48 112 48 96
WIRE 160 176 160 96
WIRE 176 176 160 176
WIRE 416 176 400 176
WIRE 544 176 496 176
WIRE 624 176 624 96
WIRE 624 176 544 176
WIRE 672 176 624 176
WIRE 672 192 672 176
WIRE 48 208 48 192
WIRE 160 256 160 176
WIRE 176 256 160 256
WIRE 544 256 544 240
WIRE 544 256 400 256
WIRE 544 272 544 256
WIRE 672 288 672 272
WIRE 160 336 160 256
WIRE 176 336 160 336
WIRE 624 336 624 176
WIRE 624 336 400 336
FLAG 48 208 0
FLAG 48 96 IN
FLAG 544 272 0
FLAG 672 176 OUT
FLAG 672 288 0
SYMBOL VOLTAGE 48 96 R0
SYMATTR InstName V1
SYMATTR Value 12
SYMBOL ind 400 192 R270
WINDOW 0 32 56 VTop 2
WINDOW 3 5 56 VBottom 2
SYMATTR InstName L1
SYMATTR Value 10µ
SYMATTR SpiceLine Ipk=1.84 Rser=0.056 Rpar=942 Cpar=0 mfg="Coilcraft" pn="MSS6132-103"
SYMBOL cap 528 176 R0
WINDOW 0 29 15 Left 2
SYMATTR InstName C1
SYMATTR Value 10µ
SYMBOL res 560 80 R90
WINDOW 0 0 56 VBottom 2
WINDOW 3 32 56 VTop 2
SYMATTR InstName R1
SYMATTR Value 10K
SYMBOL ADP2370-3.3 288 208 R0
SYMATTR InstName U1
SYMBOL res 656 176 R0
SYMATTR InstName Rload
SYMATTR Value 20
TEXT 552 392 Left 2 !.tran 500u startup
