Version 4
SHEET 1 1076 680
WIRE 32 -96 -112 -96
WIRE 176 -96 32 -96
WIRE 272 -96 176 -96
WIRE -112 -80 -112 -96
WIRE 176 -80 176 -96
WIRE 272 -80 272 -96
WIRE 32 -16 32 -96
WIRE 64 -16 32 -16
WIRE 448 -16 384 -16
WIRE 608 -16 528 -16
WIRE -112 16 -112 0
WIRE -48 64 -64 64
WIRE 32 64 16 64
WIRE 64 64 32 64
WIRE 432 64 384 64
WIRE 32 144 32 64
WIRE 64 144 32 144
WIRE 432 144 432 128
WIRE 432 144 384 144
WIRE 480 144 432 144
WIRE 608 144 608 -16
WIRE 608 144 560 144
WIRE 656 144 608 144
WIRE 768 144 656 144
WIRE 656 160 656 144
WIRE 768 160 768 144
WIRE 32 224 32 144
WIRE 64 224 32 224
WIRE 656 256 656 224
WIRE 768 256 768 240
WIRE -32 304 -64 304
WIRE 64 304 48 304
WIRE 608 304 608 144
WIRE 608 304 384 304
WIRE -160 384 -224 384
WIRE -32 384 -80 384
WIRE 64 384 -32 384
WIRE 400 384 384 384
WIRE 480 384 464 384
WIRE -224 400 -224 384
WIRE -32 400 -32 384
WIRE 176 464 176 448
WIRE 272 464 272 448
WIRE -224 480 -224 464
WIRE -32 480 -32 464
FLAG 480 384 0
FLAG 272 464 0
FLAG -64 304 0
FLAG -224 480 0
FLAG -112 16 0
FLAG 656 256 0
FLAG 768 256 0
FLAG 768 144 OUT
FLAG -112 -96 IN
FLAG -64 64 0
FLAG -32 480 0
FLAG 176 464 0
SYMBOL cap 400 368 M90
WINDOW 0 0 32 VBottom 2
WINDOW 3 32 32 VTop 2
SYMATTR InstName C1
SYMATTR Value 2n
SYMBOL ind 464 160 R270
WINDOW 0 32 56 VTop 2
WINDOW 3 5 56 VBottom 2
SYMATTR InstName L1
SYMATTR Value 1.5µ
SYMATTR SpiceLine Rser=6m
SYMBOL cap 416 64 R0
SYMATTR InstName C2
SYMATTR Value .1µ
SYMBOL cap 640 160 R0
WINDOW 40 24 74 Left 2
SYMATTR Value 70µ
SYMATTR InstName C3
SYMATTR SpiceLine Rser=2m
SYMBOL res 64 288 R90
WINDOW 0 0 56 VBottom 2
WINDOW 3 32 56 VTop 2
SYMATTR InstName R1
SYMATTR Value 100K
SYMBOL cap -240 400 R0
SYMATTR InstName C5
SYMATTR Value 680p
SYMBOL res -64 368 R90
WINDOW 0 0 56 VBottom 2
WINDOW 3 32 56 VTop 2
SYMATTR InstName R2
SYMATTR Value 36K
SYMBOL voltage -112 -96 R0
WINDOW 123 0 0 Left 2
WINDOW 39 0 0 Left 2
SYMATTR InstName V1
SYMATTR Value 5
SYMBOL res 544 -32 R90
WINDOW 0 0 56 VBottom 2
WINDOW 3 32 56 VTop 2
SYMATTR InstName R3
SYMATTR Value 100K
SYMBOL cap 16 48 R90
WINDOW 0 0 32 VBottom 2
WINDOW 3 32 32 VTop 2
SYMATTR InstName C4
SYMATTR Value 1µ
SYMBOL cap -48 400 R0
SYMATTR InstName C6
SYMATTR Value 1p
SYMBOL res 752 144 R0
SYMATTR InstName Rload
SYMATTR Value .5
SYMBOL ADP2165-2.5 224 176 R0
SYMATTR InstName U1
TEXT 584 440 Left 2 !.tran 1m startup
