Version 4
SHEET 1 1060 680
WIRE -144 -48 -256 -48
WIRE 0 -48 -144 -48
WIRE 224 -48 0 -48
WIRE -256 -32 -256 -48
WIRE 0 -32 0 -48
WIRE -144 16 -144 -48
WIRE 224 32 224 -48
WIRE -256 64 -256 48
WIRE 0 64 0 48
WIRE 96 64 0 64
WIRE 384 64 352 64
WIRE 512 64 464 64
WIRE 560 64 512 64
WIRE 704 64 560 64
WIRE 560 80 560 64
WIRE 704 80 704 64
WIRE -144 128 -144 96
WIRE 96 128 -144 128
WIRE 560 176 560 144
WIRE 704 176 704 160
WIRE 96 192 80 192
WIRE 512 192 512 64
WIRE 512 192 352 192
WIRE 16 256 0 256
WIRE 96 256 80 256
WIRE 176 320 176 304
WIRE 272 320 272 304
FLAG 0 256 0
FLAG -256 64 0
FLAG 176 320 0
FLAG 272 320 0
FLAG 560 176 0
FLAG 704 176 0
FLAG 704 64 OUT
FLAG 80 192 0
FLAG -256 -48 IN
SYMBOL voltage -256 -48 R0
SYMATTR InstName V1
SYMATTR Value 5
SYMBOL res -16 -48 R0
SYMATTR InstName R1
SYMATTR Value 100K
SYMBOL res -160 0 R0
SYMATTR InstName R2
SYMATTR Value 22Meg
SYMBOL cap 80 240 R90
WINDOW 0 0 32 VBottom 2
WINDOW 3 32 32 VTop 2
SYMATTR InstName C1
SYMATTR Value 1n
SYMBOL ind 368 80 R270
WINDOW 0 32 56 VTop 2
WINDOW 3 5 56 VBottom 2
SYMATTR InstName L1
SYMATTR Value 100µ
SYMATTR SpiceLine Rpar=50k
SYMBOL cap 544 80 R0
WINDOW 39 24 61 Left 2
WINDOW 3 45 33 Left 2
SYMATTR SpiceLine Rser=3m
SYMATTR Value 10µ
SYMATTR InstName C2
SYMBOL res 688 64 R0
SYMATTR InstName Rload
SYMATTR Value 66
SYMBOL ADP2360-3.3 224 160 R0
SYMATTR InstName U1
TEXT 400 280 Left 2 !.tran 3m startup
