Version 4
SHEET 1 2952 2324
WIRE 1792 1184 1632 1184
WIRE 2128 1184 1872 1184
WIRE 1920 1248 1760 1248
WIRE 2128 1248 2128 1184
WIRE 2128 1248 2000 1248
WIRE 1632 1264 1632 1184
WIRE 1760 1264 1760 1248
WIRE 1280 1328 1168 1328
WIRE 1392 1328 1280 1328
WIRE 1504 1328 1392 1328
WIRE 1536 1328 1504 1328
WIRE 2000 1328 1856 1328
WIRE 2128 1328 2128 1248
WIRE 2128 1328 2080 1328
WIRE 1168 1344 1168 1328
WIRE 1392 1408 1392 1328
WIRE 1504 1424 1504 1328
WIRE 1536 1424 1504 1424
WIRE 1888 1424 1856 1424
WIRE 1168 1440 1168 1424
WIRE 1888 1440 1888 1424
WIRE 1280 1472 1280 1328
WIRE 1504 1520 1504 1424
WIRE 1536 1520 1504 1520
WIRE 1888 1520 1888 1504
WIRE 1888 1520 1856 1520
WIRE 1968 1520 1888 1520
WIRE 2128 1520 2128 1328
WIRE 2128 1520 2048 1520
WIRE 2240 1520 2128 1520
WIRE 2384 1520 2240 1520
WIRE 1392 1536 1392 1488
WIRE 1504 1536 1392 1536
WIRE 2128 1536 2128 1520
WIRE 2240 1536 2240 1520
WIRE 2384 1536 2384 1520
WIRE 1392 1584 1392 1536
WIRE 1504 1632 1504 1536
WIRE 1536 1632 1504 1632
WIRE 2128 1632 2128 1616
WIRE 2128 1632 1856 1632
WIRE 2240 1632 2240 1600
WIRE 2384 1632 2384 1616
WIRE 1392 1680 1392 1664
WIRE 1280 1728 1280 1552
WIRE 1536 1728 1280 1728
WIRE 1888 1728 1856 1728
WIRE 2128 1728 2128 1712
WIRE 1888 1744 1888 1728
WIRE 1280 1824 1280 1808
WIRE 1392 1824 1280 1824
WIRE 1536 1824 1456 1824
WIRE 1888 1824 1888 1808
WIRE 1888 1824 1856 1824
WIRE 1952 1824 1888 1824
WIRE 2112 1824 2032 1824
WIRE 2224 1824 2112 1824
WIRE 2368 1824 2224 1824
WIRE 1280 1840 1280 1824
WIRE 2112 1840 2112 1824
WIRE 2224 1840 2224 1824
WIRE 2368 1840 2368 1824
WIRE 2112 1936 2112 1920
WIRE 2112 1936 1856 1936
WIRE 2224 1936 2224 1904
WIRE 2368 1936 2368 1920
WIRE 1872 2032 1856 2032
WIRE 2112 2032 2112 2016
WIRE 1616 2112 1616 2096
WIRE 1760 2112 1760 2096
FLAG 1168 1440 0
FLAG 1168 1328 IN
FLAG 2368 1936 0
FLAG 2112 2032 0
FLAG 2224 1936 0
FLAG 2368 1824 OUT2
FLAG 1616 2112 0
FLAG 1760 2112 0
FLAG 1872 2032 0
FLAG 2384 1632 0
FLAG 2128 1728 0
FLAG 2240 1632 0
FLAG 2384 1520 OUT1
FLAG 1392 1680 0
FLAG 1280 1840 0
SYMBOL VOLTAGE 1168 1328 R0
WINDOW 123 24 138 Left 2
WINDOW 39 24 117 Left 2
SYMATTR InstName V1
SYMATTR Value 12
SYMBOL res 2096 1312 R90
WINDOW 0 0 56 VBottom 2
WINDOW 3 32 56 VTop 2
SYMATTR InstName R3
SYMATTR Value 500K
SYMBOL ind 1936 1840 R270
WINDOW 0 32 56 VTop 2
WINDOW 3 5 56 VBottom 2
WINDOW 39 -23 56 VBottom 2
SYMATTR InstName L2
SYMATTR Value 22µ
SYMATTR SpiceLine Rser=52m
SYMBOL RES 2096 1824 R0
SYMATTR InstName R4
SYMATTR Value 10k
SYMBOL res 2096 1920 R0
SYMATTR InstName R5
SYMATTR Value 2.21k
SYMBOL cap 2208 1840 R0
WINDOW 39 24 84 Left 2
SYMATTR SpiceLine Rser=2m
SYMATTR InstName C2
SYMATTR Value 27µ
SYMBOL res 2352 1824 R0
SYMATTR InstName Rload2
SYMATTR Value 13.2
SYMBOL cap 1872 1744 R0
SYMATTR InstName C5
SYMATTR Value 0.1µ
SYMBOL ind 1952 1536 R270
WINDOW 0 32 56 VTop 2
WINDOW 3 5 56 VBottom 2
WINDOW 39 -23 56 VBottom 2
SYMATTR InstName L1
SYMATTR Value 22µ
SYMATTR SpiceLine Rser=52m
SYMBOL RES 2112 1520 R0
SYMATTR InstName R1
SYMATTR Value 10k
SYMBOL res 2112 1616 R0
SYMATTR InstName R2
SYMATTR Value 2.21k
SYMBOL cap 2224 1536 R0
WINDOW 39 24 84 Left 2
SYMATTR SpiceLine Rser=2m
SYMATTR InstName C1
SYMATTR Value 27µ
SYMBOL res 2368 1520 R0
SYMATTR InstName Rload1
SYMATTR Value 13.2
SYMBOL cap 1872 1440 R0
SYMATTR InstName C3
SYMATTR Value 0.1µ
SYMBOL res 1904 1264 R270
WINDOW 0 32 56 VTop 2
WINDOW 3 0 56 VBottom 2
SYMATTR InstName R6
SYMATTR Value 500K
SYMBOL res 1776 1200 R270
WINDOW 0 32 56 VTop 2
WINDOW 3 0 56 VBottom 2
SYMATTR InstName R7
SYMATTR Value 500K
SYMBOL RES 1376 1392 R0
SYMATTR InstName R8
SYMATTR Value 500k
SYMBOL res 1376 1568 R0
SYMATTR InstName R9
SYMATTR Value 66.5k
SYMBOL RES 1264 1456 R0
SYMATTR InstName R10
SYMATTR Value 500k
SYMBOL res 1264 1712 R0
SYMATTR InstName R11
SYMATTR Value 66.5k
SYMBOL cap 1456 1808 R90
WINDOW 0 0 32 VBottom 2
WINDOW 3 32 32 VTop 2
SYMATTR InstName C4
SYMATTR Value 0.1µ
SYMBOL ADP2311 1696 1600 R0
SYMATTR InstName U1
TEXT 2048 2136 Left 2 !.tran 5m startup
