Version 4
SHEET 1 1220 680
WIRE 128 0 48 0
WIRE 288 0 128 0
WIRE 48 16 48 0
WIRE 288 32 288 0
WIRE 128 64 128 0
WIRE 160 64 128 64
WIRE 496 64 416 64
WIRE 656 64 576 64
WIRE 48 112 48 96
WIRE 128 144 128 64
WIRE 160 144 128 144
WIRE 448 144 416 144
WIRE 560 144 528 144
WIRE 656 144 656 64
WIRE 656 144 560 144
WIRE 800 144 656 144
WIRE 560 160 560 144
WIRE 800 160 800 144
WIRE 656 192 656 144
WIRE 128 224 128 144
WIRE 160 224 128 224
WIRE 560 224 416 224
WIRE 560 256 560 224
WIRE 800 256 800 240
WIRE 128 304 128 224
WIRE 160 304 128 304
WIRE 656 304 656 272
WIRE 656 304 416 304
WIRE 656 320 656 304
WIRE 128 384 128 304
WIRE 160 384 128 384
WIRE 656 416 656 400
WIRE 288 432 288 416
FLAG 560 256 0
FLAG 288 432 0
FLAG 48 112 0
FLAG 800 144 OUT
FLAG 800 256 0
FLAG 48 0 IN
FLAG 656 416 0
SYMBOL ind 432 160 R270
WINDOW 0 32 56 VTop 2
WINDOW 3 5 56 VBottom 2
SYMATTR InstName L1
SYMATTR Value 1µ
SYMBOL cap 544 160 R0
WINDOW 0 21 15 Left 2
WINDOW 3 22 48 Left 2
SYMATTR InstName C1
SYMATTR Value 147µ
SYMBOL res 592 48 R90
WINDOW 0 0 56 VBottom 2
WINDOW 3 32 56 VTop 2
SYMATTR InstName R1
SYMATTR Value 100K
SYMBOL voltage 48 0 R0
SYMATTR InstName V1
SYMATTR Value 5
SYMBOL res 640 176 R0
SYMATTR InstName R2
SYMATTR Value 13.5K
SYMBOL res 640 304 R0
SYMATTR InstName R3
SYMATTR Value 3K
SYMBOL res 784 144 R0
SYMATTR InstName Rload
SYMATTR Value 1.1
SYMBOL PowerProducts\\ADP2118-ADJ 288 272 R0
SYMATTR InstName U1
TEXT 800 400 Left 2 !.tran 2m startup
