Version 4
SHEET 1 1000 692
WIRE 128 48 16 48
WIRE 160 48 128 48
WIRE 448 48 416 48
WIRE 16 64 16 48
WIRE 448 80 448 48
WIRE 16 160 16 144
WIRE 128 176 128 48
WIRE 160 176 128 176
WIRE 448 176 448 144
WIRE 448 176 416 176
WIRE 544 176 448 176
WIRE 672 176 624 176
WIRE 768 176 672 176
WIRE 912 176 768 176
WIRE 448 192 448 176
WIRE 672 192 672 176
WIRE 912 192 912 176
WIRE 768 208 768 176
WIRE 448 272 448 256
WIRE 672 272 672 256
WIRE 912 288 912 272
WIRE 160 304 128 304
WIRE 768 304 768 288
WIRE 768 304 416 304
WIRE 768 320 768 304
WIRE 768 416 768 400
FLAG 16 160 0
FLAG 16 48 IN
FLAG 672 272 0
FLAG 912 176 OUT
FLAG 128 304 0
FLAG 448 272 0
FLAG 768 416 0
FLAG 912 288 0
SYMBOL VOLTAGE 16 48 R0
SYMATTR InstName V1
SYMATTR Value 12
SYMBOL ind 528 192 R270
WINDOW 0 32 56 VTop 2
WINDOW 3 5 56 VBottom 2
SYMATTR InstName L1
SYMATTR Value 6.8µ
SYMATTR SpiceLine Ipk=1.84 Rser=0.056 Rpar=942 Cpar=0 mfg="Coilcraft" pn="MSS6132-103"
SYMBOL cap 656 192 R0
WINDOW 0 29 15 Left 2
SYMATTR InstName C1
SYMATTR Value 10µ
SYMBOL cap 432 80 R0
SYMATTR InstName C2
SYMATTR Value 100n
SYMBOL res 752 192 R0
SYMATTR InstName R1
SYMATTR Value 69.8K
SYMBOL res 752 304 R0
SYMATTR InstName R2
SYMATTR Value 13.3K
SYMBOL schottky 432 256 M180
WINDOW 0 24 64 Left 2
WINDOW 3 24 0 Left 2
SYMATTR InstName D1
SYMATTR Value MBRS340
SYMATTR Description Diode
SYMATTR Type diode
SYMBOL ADP2301 288 176 R0
SYMATTR InstName U1
SYMBOL res 896 176 R0
SYMATTR InstName Rload
SYMATTR Value 15
TEXT 520 384 Left 2 !.tran 1m startup
