Version 4
SHEET 1 1272 728
WIRE -80 -112 -288 -112
WIRE 176 -112 -80 -112
WIRE 384 -112 176 -112
WIRE -288 -96 -288 -112
WIRE -80 -96 -80 -112
WIRE 176 -80 176 -112
WIRE -288 0 -288 -16
WIRE -160 0 -176 0
WIRE -80 0 -80 -16
WIRE -80 0 -96 0
WIRE 0 0 -80 0
WIRE 384 0 384 -112
WIRE 384 0 352 0
WIRE -80 112 -80 0
WIRE 0 112 -80 112
WIRE 384 112 352 112
WIRE 496 112 464 112
WIRE 576 112 496 112
WIRE 672 112 576 112
WIRE 576 128 576 112
WIRE 672 128 672 112
WIRE -80 224 -80 112
WIRE 0 224 -80 224
WIRE 496 224 496 112
WIRE 496 224 352 224
WIRE 576 224 576 192
WIRE 672 224 672 208
WIRE -96 368 -112 368
WIRE 0 368 -16 368
WIRE 384 368 352 368
WIRE 496 368 496 224
WIRE 496 368 464 368
WIRE 112 496 112 480
WIRE 240 496 240 480
FLAG 112 496 0
FLAG -112 368 0
FLAG -288 0 0
FLAG 576 224 0
FLAG 672 224 0
FLAG 672 112 OUT
FLAG -288 -112 IN
FLAG 240 496 0
FLAG -176 0 0
SYMBOL ind 368 128 R270
WINDOW 0 32 56 VTop 2
WINDOW 3 5 56 VBottom 2
SYMATTR InstName L1
SYMATTR Value 1µ
SYMATTR SpiceLine Rser=6m
SYMBOL res 0 352 R90
WINDOW 0 0 56 VBottom 2
WINDOW 3 32 56 VTop 2
SYMATTR InstName R4
SYMATTR Value 45.3K
SYMBOL voltage -288 -112 R0
WINDOW 123 0 0 Left 2
WINDOW 39 0 0 Left 2
SYMATTR InstName V1
SYMATTR Value 5
SYMBOL res 656 112 R0
SYMATTR InstName Rload
SYMATTR Value 0.6
SYMBOL res 480 352 R90
WINDOW 0 0 56 VBottom 2
WINDOW 3 32 56 VTop 2
SYMATTR InstName R3
SYMATTR Value 100K
SYMBOL res -96 -112 R0
SYMATTR InstName R5
SYMATTR Value 10
SYMBOL cap 560 128 R0
SYMATTR InstName C3
SYMATTR Value 80µ
SYMATTR SpiceLine Rser=2m
SYMBOL cap -96 16 M270
WINDOW 0 32 32 VTop 2
WINDOW 3 0 32 VBottom 2
SYMATTR InstName C1
SYMATTR Value 100n
SYMBOL ADP2164-1.8 176 192 R0
SYMATTR InstName U1
TEXT 632 400 Left 2 !.tran 2m startup
