Version 4
SHEET 1 1272 728
WIRE -64 -112 -304 -112
WIRE 176 -112 -64 -112
WIRE 384 -112 176 -112
WIRE -304 -96 -304 -112
WIRE -64 -96 -64 -112
WIRE 176 -80 176 -112
WIRE -304 0 -304 -16
WIRE -144 0 -160 0
WIRE -64 0 -64 -16
WIRE -64 0 -80 0
WIRE 0 0 -64 0
WIRE 384 0 384 -112
WIRE 384 0 352 0
WIRE -64 112 -64 0
WIRE 0 112 -64 112
WIRE 368 112 352 112
WIRE 480 112 448 112
WIRE 560 112 480 112
WIRE 656 112 560 112
WIRE 560 128 560 112
WIRE 656 128 656 112
WIRE -64 224 -64 112
WIRE 0 224 -64 224
WIRE 480 224 480 112
WIRE 480 224 352 224
WIRE 560 224 560 192
WIRE 656 224 656 208
WIRE -96 368 -112 368
WIRE 0 368 -16 368
WIRE 384 368 352 368
WIRE 480 368 480 224
WIRE 480 368 464 368
WIRE 112 496 112 480
WIRE 240 496 240 480
FLAG 112 496 0
FLAG -112 368 0
FLAG -304 0 0
FLAG 560 224 0
FLAG 656 224 0
FLAG 656 112 OUT
FLAG -304 -112 IN
FLAG 240 496 0
FLAG -160 0 0
SYMBOL ind 352 128 R270
WINDOW 0 32 56 VTop 2
WINDOW 3 5 56 VBottom 2
SYMATTR InstName L1
SYMATTR Value 1µ
SYMATTR SpiceLine Rser=6m
SYMBOL res 0 352 R90
WINDOW 0 0 56 VBottom 2
WINDOW 3 32 56 VTop 2
SYMATTR InstName R4
SYMATTR Value 45.3K
SYMBOL voltage -304 -112 R0
WINDOW 123 0 0 Left 2
WINDOW 39 0 0 Left 2
SYMATTR InstName V1
SYMATTR Value 5
SYMBOL res 640 112 R0
SYMATTR InstName Rload
SYMATTR Value 0.8
SYMBOL res 480 352 R90
WINDOW 0 0 56 VBottom 2
WINDOW 3 32 56 VTop 2
SYMATTR InstName R3
SYMATTR Value 100K
SYMBOL res -80 -112 R0
SYMATTR InstName R5
SYMATTR Value 10
SYMBOL cap 544 128 R0
SYMATTR InstName C3
SYMATTR Value 70µ
SYMATTR SpiceLine Rser=2m
SYMBOL cap -80 16 M270
WINDOW 0 32 32 VTop 2
WINDOW 3 0 32 VBottom 2
SYMATTR InstName C1
SYMATTR Value 100n
SYMBOL ADP2164-2.5 176 192 R0
SYMATTR InstName U1
TEXT 520 400 Left 2 !.tran 2m startup
