Version 4
SHEET 1 2548 1428
WIRE 1424 1072 1360 1072
WIRE 1440 1072 1424 1072
WIRE 1712 1072 1696 1072
WIRE 1360 1088 1360 1072
WIRE 1424 1168 1424 1072
WIRE 1440 1168 1424 1168
WIRE 1712 1168 1696 1168
WIRE 1360 1184 1360 1168
WIRE 1440 1264 1360 1264
WIRE 1712 1264 1696 1264
WIRE 1360 1280 1360 1264
WIRE 1360 1376 1360 1360
FLAG 1360 1376 0
FLAG 1712 1264 0
FLAG 1360 1184 0
SYMBOL voltage 1360 1264 R0
SYMATTR InstName V1
SYMATTR Value 5
SYMBOL voltage 1360 1072 M0
WINDOW 123 24 138 Left 2
WINDOW 39 24 117 Left 2
SYMATTR InstName V2
SYMATTR Value PULSE(0 2 0 1n 1n 5u 10u)
SYMBOL ADP3654 1568 1168 R0
SYMATTR InstName U1
TEXT 1720 1344 Left 2 !.tran 100u
