Version 4
SHEET 1 1640 992
WIRE 0 -416 -224 -416
WIRE 160 -416 0 -416
WIRE 336 -416 160 -416
WIRE 496 -416 336 -416
WIRE -224 -400 -224 -416
WIRE 160 -400 160 -416
WIRE 336 -400 336 -416
WIRE 0 -352 0 -416
WIRE 16 -352 0 -352
WIRE 496 -352 496 -416
WIRE 496 -352 480 -352
WIRE -224 -304 -224 -320
WIRE -112 -256 -128 -256
WIRE 16 -256 -48 -256
WIRE 512 -256 480 -256
WIRE 688 -256 592 -256
WIRE -112 -160 -128 -160
WIRE 16 -160 -32 -160
WIRE 512 -160 480 -160
WIRE 512 -144 512 -160
WIRE 0 -64 0 -352
WIRE 16 -64 0 -64
WIRE 512 -64 512 -80
WIRE 512 -64 480 -64
WIRE 560 -64 512 -64
WIRE 688 -64 688 -256
WIRE 688 -64 640 -64
WIRE 896 -64 688 -64
WIRE 976 -64 896 -64
WIRE 896 -48 896 -64
WIRE 976 -48 976 -64
WIRE -192 32 -208 32
WIRE -112 32 -128 32
WIRE 16 32 -32 32
WIRE 688 32 688 16
WIRE 688 32 480 32
WIRE 768 32 688 32
WIRE 896 32 896 16
WIRE 896 32 848 32
WIRE 976 32 896 32
WIRE 976 48 976 32
WIRE -112 128 -128 128
WIRE 16 128 -32 128
WIRE 512 128 480 128
WIRE 512 144 512 128
WIRE 0 224 0 -64
WIRE 16 224 0 224
WIRE 512 224 512 208
WIRE 512 224 480 224
WIRE 560 224 512 224
WIRE 688 224 640 224
WIRE 896 224 688 224
WIRE 976 224 896 224
WIRE 896 240 896 224
WIRE 976 240 976 224
WIRE -192 320 -208 320
WIRE -112 320 -128 320
WIRE 16 320 -32 320
WIRE 688 320 688 304
WIRE 688 320 480 320
WIRE 768 320 688 320
WIRE 896 320 896 304
WIRE 896 320 848 320
WIRE 976 320 896 320
WIRE 976 336 976 320
WIRE -112 416 -128 416
WIRE 16 416 -32 416
WIRE 512 416 480 416
WIRE 512 432 512 416
WIRE 0 512 0 224
WIRE 16 512 0 512
WIRE 512 512 512 496
WIRE 512 512 480 512
WIRE 560 512 512 512
WIRE 688 512 640 512
WIRE 896 512 688 512
WIRE 976 512 896 512
WIRE 896 528 896 512
WIRE 976 528 976 512
WIRE -176 608 -192 608
WIRE -96 608 -112 608
WIRE 16 608 -16 608
WIRE 688 608 688 592
WIRE 688 608 480 608
WIRE 768 608 688 608
WIRE 896 608 896 592
WIRE 896 608 848 608
WIRE 976 608 896 608
WIRE 976 624 976 608
WIRE 0 704 0 512
WIRE 16 704 0 704
WIRE 496 704 480 704
WIRE -96 800 -112 800
WIRE 16 800 -16 800
WIRE 512 800 480 800
WIRE 608 800 592 800
WIRE 160 880 160 864
WIRE 336 880 336 864
FLAG -224 -304 0
FLAG -224 -416 IN
FLAG 336 880 0
FLAG 160 880 0
FLAG 976 48 0
FLAG 976 -64 OUT1
FLAG -128 -256 0
FLAG -112 800 0
FLAG 976 624 0
FLAG 976 512 OUT3
FLAG 496 704 0
FLAG 608 800 0
FLAG -128 -160 0
FLAG -208 32 0
FLAG -128 128 0
FLAG -192 608 0
FLAG -208 320 0
FLAG -128 416 0
FLAG 976 336 0
FLAG 976 224 OUT2
SYMBOL ind 544 -48 R270
WINDOW 0 32 56 VTop 2
WINDOW 3 5 56 VBottom 2
SYMATTR InstName L1
SYMATTR Value .8µ
SYMATTR SpiceLine Rser=10m
SYMBOL res 608 -272 R90
WINDOW 0 0 56 VBottom 2
WINDOW 3 32 56 VTop 2
SYMATTR InstName R11
SYMATTR Value 100K
SYMBOL res 672 -80 R0
SYMATTR InstName R1
SYMATTR Value 6.67k
SYMBOL res 752 48 R270
WINDOW 0 32 56 VTop 2
WINDOW 3 0 56 VBottom 2
SYMATTR InstName R2
SYMATTR Value 10k
SYMBOL cap 880 -48 R0
SYMATTR InstName C1
SYMATTR Value 470µ
SYMATTR SpiceLine Rser=6m
SYMBOL res 960 -64 R0
SYMATTR InstName Rload1
SYMATTR Value 1
SYMBOL cap -112 -272 M90
WINDOW 0 0 32 VBottom 2
WINDOW 3 32 32 VTop 2
SYMATTR InstName C6
SYMATTR Value 4.7µ
SYMBOL res 0 816 M270
WINDOW 0 32 56 VTop 2
WINDOW 3 0 56 VBottom 2
SYMATTR InstName R12
SYMATTR Value 215K
SYMBOL cap 496 -144 R0
SYMATTR InstName C2
SYMATTR Value .1µ
SYMBOL cap 496 144 R0
SYMATTR InstName C4
SYMATTR Value .1µ
SYMBOL ind 544 528 R270
WINDOW 0 32 56 VTop 2
WINDOW 3 5 56 VBottom 2
SYMATTR InstName L3
SYMATTR Value 2.2µ
SYMATTR SpiceLine Rser=86m
SYMBOL res 672 496 R0
SYMATTR InstName R5
SYMATTR Value 15k
SYMBOL res 752 624 R270
WINDOW 0 32 56 VTop 2
WINDOW 3 0 56 VBottom 2
SYMATTR InstName R6
SYMATTR Value 10k
SYMBOL cap 880 528 R0
WINDOW 123 24 84 Left 2
SYMATTR Value2 x3
SYMATTR InstName C5
SYMATTR Value 47µ
SYMATTR SpiceLine Rser=6m
SYMBOL res 960 512 R0
SYMATTR InstName Rload3
SYMATTR Value 5
SYMBOL cap 496 432 R0
SYMATTR InstName C7
SYMATTR Value .1µ
SYMBOL res 496 816 R270
WINDOW 0 32 56 VTop 2
WINDOW 3 0 56 VBottom 2
SYMATTR InstName R8
SYMATTR Value 23.7k
SYMBOL res -16 -144 M270
WINDOW 0 32 56 VTop 2
WINDOW 3 0 56 VBottom 2
SYMATTR InstName R9
SYMATTR Value 402k
SYMBOL cap -128 16 R90
WINDOW 0 0 32 VBottom 2
WINDOW 3 32 32 VTop 2
SYMATTR InstName C8
SYMATTR Value 1.2n
SYMBOL res -16 16 R90
WINDOW 0 0 56 VBottom 2
WINDOW 3 32 56 VTop 2
SYMATTR InstName R10
SYMATTR Value 22.6k
SYMBOL res -16 144 M270
WINDOW 0 32 56 VTop 2
WINDOW 3 0 56 VBottom 2
SYMATTR InstName R13
SYMATTR Value 402k
SYMBOL cap -112 592 R90
WINDOW 0 0 32 VBottom 2
WINDOW 3 32 32 VTop 2
SYMATTR InstName C10
SYMATTR Value 2.7n
SYMBOL res 0 592 R90
WINDOW 0 0 56 VBottom 2
WINDOW 3 32 56 VTop 2
SYMATTR InstName R16
SYMATTR Value 40.2k
SYMBOL cap -128 304 R90
WINDOW 0 0 32 VBottom 2
WINDOW 3 32 32 VTop 2
SYMATTR InstName C9
SYMATTR Value 1.2n
SYMBOL res -16 304 R90
WINDOW 0 0 56 VBottom 2
WINDOW 3 32 56 VTop 2
SYMATTR InstName R14
SYMATTR Value 22.6k
SYMBOL res -16 432 M270
WINDOW 0 32 56 VTop 2
WINDOW 3 0 56 VBottom 2
SYMATTR InstName R15
SYMATTR Value 499k
SYMBOL voltage -224 -416 R0
WINDOW 123 0 0 Left 2
WINDOW 39 0 0 Left 2
SYMATTR InstName V1
SYMATTR Value 13.2
SYMBOL ind 544 240 R270
WINDOW 0 32 56 VTop 2
WINDOW 3 5 56 VBottom 2
SYMATTR InstName L2
SYMATTR Value .8µ
SYMATTR SpiceLine Rser=10m
SYMBOL res 672 208 R0
SYMATTR InstName R3
SYMATTR Value 6.67k
SYMBOL res 752 336 R270
WINDOW 0 32 56 VTop 2
WINDOW 3 0 56 VBottom 2
SYMATTR InstName R4
SYMATTR Value 10k
SYMBOL cap 880 240 R0
SYMATTR InstName C3
SYMATTR Value 470µ
SYMATTR SpiceLine Rser=6m
SYMBOL res 960 224 R0
SYMATTR InstName Rload2
SYMATTR Value 1
SYMBOL ADP5056 256 224 R0
SYMATTR InstName U1
TEXT 720 776 Left 2 !.tran 2.5m startup
TEXT 632 -368 Left 2 ;Note: The sequence control on each channel is not modeled.
