Version 4
SHEET 1 1044 816
WIRE 16 -176 -96 -176
WIRE 144 -176 16 -176
WIRE 272 -176 144 -176
WIRE -96 -160 -96 -176
WIRE 144 -160 144 -176
WIRE 272 -160 272 -176
WIRE 16 -112 16 -176
WIRE 32 -112 16 -112
WIRE 416 -112 384 -112
WIRE 528 -112 496 -112
WIRE 576 -112 528 -112
WIRE 624 -112 576 -112
WIRE 720 -112 624 -112
WIRE 624 -96 624 -112
WIRE 720 -96 720 -112
WIRE -96 -64 -96 -80
WIRE -320 -16 -368 -16
WIRE -192 -16 -240 -16
WIRE 32 -16 -192 -16
WIRE 528 -16 528 -112
WIRE 528 -16 384 -16
WIRE -368 0 -368 -16
WIRE -192 0 -192 -16
WIRE 624 0 624 -32
WIRE 720 0 720 -16
WIRE -368 80 -368 64
WIRE -192 80 -192 64
WIRE -64 80 -80 80
WIRE 16 80 0 80
WIRE 32 80 16 80
WIRE 416 80 384 80
WIRE 512 80 496 80
WIRE -128 176 -144 176
WIRE 32 176 -48 176
WIRE 16 272 16 80
WIRE 32 272 16 272
WIRE 400 272 384 272
WIRE 32 368 -64 368
WIRE 576 368 576 -112
WIRE 576 368 384 368
WIRE -176 464 -192 464
WIRE -64 464 -64 448
WIRE -64 464 -96 464
WIRE 32 464 -64 464
WIRE 400 464 384 464
WIRE 464 464 400 464
WIRE 592 464 464 464
WIRE 464 480 464 464
WIRE 592 480 592 464
WIRE -80 560 -96 560
WIRE 32 560 -16 560
WIRE 400 560 400 464
WIRE 400 560 384 560
WIRE 464 576 464 544
WIRE 592 576 592 560
WIRE -48 656 -64 656
WIRE 32 656 16 656
WIRE 400 656 384 656
WIRE 144 736 144 720
WIRE 272 736 272 720
FLAG 144 736 0
FLAG 272 736 0
FLAG 624 0 0
FLAG 720 0 0
FLAG 720 -112 OUT1
FLAG -192 464 0
FLAG -368 80 0
FLAG 512 80 0
FLAG 464 576 0
FLAG 400 656 0
FLAG 592 464 OUT2
FLAG -96 -64 0
FLAG -96 -176 IN
FLAG -80 80 0
FLAG -64 656 0
FLAG -144 176 0
FLAG 400 272 0
FLAG -96 560 0
FLAG -192 80 0
FLAG 592 576 0
SYMBOL cap 608 -96 R0
SYMATTR InstName C1
SYMATTR Value 47µ
SYMBOL ind 400 -96 R270
WINDOW 0 32 56 VTop 2
WINDOW 3 5 56 VBottom 2
SYMATTR InstName L1
SYMATTR Value 2.2µ
SYMATTR SpiceLine Rser=50m
SYMBOL res -80 352 R0
SYMATTR InstName R8
SYMATTR Value 43.2K
SYMBOL res 704 -112 R0
SYMATTR InstName Rload1
SYMATTR Value 1
SYMBOL res -80 448 R90
WINDOW 0 0 56 VBottom 2
WINDOW 3 32 56 VTop 2
SYMATTR InstName R3
SYMATTR Value 52.3K
SYMBOL res -224 -32 R90
WINDOW 0 0 56 VBottom 2
WINDOW 3 32 56 VTop 2
SYMATTR InstName R4
SYMATTR Value 1.8K
SYMBOL cap -384 0 R0
SYMATTR InstName C3
SYMATTR Value 22n
SYMBOL res 400 96 R270
WINDOW 0 32 56 VTop 2
WINDOW 3 0 56 VBottom 2
SYMATTR InstName R1
SYMATTR Value 180K
SYMBOL cap 448 480 R0
SYMATTR InstName C2
SYMATTR Value 10µ
SYMBOL res 576 464 R0
SYMATTR InstName Rload2
SYMATTR Value 2
SYMBOL VOLTAGE -96 -176 R0
WINDOW 123 0 0 Left 0
WINDOW 39 0 0 Left 0
SYMATTR InstName V1
SYMATTR Value 10
SYMBOL cap -64 64 M90
WINDOW 0 0 32 VBottom 2
WINDOW 3 32 32 VTop 2
SYMATTR InstName C4
SYMATTR Value 1µ
SYMBOL cap -48 640 M90
WINDOW 0 0 32 VBottom 2
WINDOW 3 32 32 VTop 2
SYMATTR InstName C6
SYMATTR Value 1µ
SYMBOL cap -80 544 M90
WINDOW 0 0 32 VBottom 2
WINDOW 3 32 32 VTop 2
SYMATTR InstName C7
SYMATTR Value 1µ
SYMBOL VOLTAGE -32 176 R90
WINDOW 0 -32 56 VBottom 2
WINDOW 3 32 56 VTop 2
WINDOW 123 74 56 VTop 2
WINDOW 39 53 56 VTop 2
SYMATTR InstName V2
SYMATTR Value 5.5
SYMBOL cap -208 0 R0
SYMATTR InstName C5
SYMATTR Value 22p
SYMBOL ADP5003 208 208 R0
SYMATTR InstName U1
TEXT 680 624 Left 2 !.tran 4m startup
