Version 4
SHEET 1 880 680
WIRE 144 64 64 64
WIRE 160 64 144 64
WIRE 496 64 416 64
WIRE 624 64 576 64
WIRE 64 80 64 64
WIRE 144 144 144 64
WIRE 160 144 144 144
WIRE 448 144 416 144
WIRE 576 144 528 144
WIRE 624 144 624 64
WIRE 624 144 576 144
WIRE 736 144 624 144
WIRE 624 160 624 144
WIRE 736 160 736 144
WIRE 64 176 64 160
WIRE 160 224 144 224
WIRE 576 224 576 144
WIRE 576 224 416 224
WIRE 624 256 624 224
WIRE 736 256 736 240
WIRE 160 304 144 304
WIRE 432 304 416 304
WIRE 288 384 288 368
FLAG 624 256 0
FLAG 432 304 0
FLAG 64 176 0
FLAG 736 144 OUT
FLAG 736 256 0
FLAG 64 64 IN
FLAG 288 384 0
FLAG 144 304 0
FLAG 144 224 0
SYMBOL ind 432 160 R270
WINDOW 0 32 56 VTop 2
WINDOW 3 5 56 VBottom 2
SYMATTR InstName L1
SYMATTR Value 2.2µ
SYMATTR SpiceLine Rser=80m
SYMBOL cap 608 160 R0
SYMATTR InstName C1
SYMATTR Value 10µ
SYMBOL res 592 48 R90
WINDOW 0 0 56 VBottom 2
WINDOW 3 32 56 VTop 2
SYMATTR InstName R1
SYMATTR Value 1Meg
SYMBOL voltage 64 64 R0
SYMATTR InstName V1
SYMATTR Value 5
SYMBOL res 720 144 R0
SYMATTR Value 80
SYMATTR InstName Rload
SYMBOL ADP5303-2 288 192 R0
SYMATTR InstName U1
TEXT 440 384 Left 2 !.tran .6m startup
