Version 4
SHEET 1 1640 984
WIRE -32 -240 -144 -240
WIRE 0 -240 -32 -240
WIRE 512 -240 464 -240
WIRE 640 -240 592 -240
WIRE -144 -224 -144 -240
WIRE -32 -160 -32 -240
WIRE 0 -160 -32 -160
WIRE 512 -160 464 -160
WIRE 640 -160 640 -240
WIRE 640 -160 592 -160
WIRE 848 -160 640 -160
WIRE 928 -160 848 -160
WIRE 848 -144 848 -160
WIRE 928 -144 928 -160
WIRE -144 -128 -144 -144
WIRE -32 -64 -32 -160
WIRE 0 -64 -32 -64
WIRE 640 -64 640 -80
WIRE 640 -64 464 -64
WIRE 720 -64 640 -64
WIRE 848 -64 848 -80
WIRE 848 -64 800 -64
WIRE 928 -64 848 -64
WIRE 928 -48 928 -64
WIRE -32 32 -32 -64
WIRE 0 32 -32 32
WIRE 512 32 464 32
WIRE 640 32 592 32
WIRE 848 32 640 32
WIRE 928 32 848 32
WIRE 848 48 848 32
WIRE 928 48 928 32
WIRE -32 128 -32 32
WIRE 0 128 -32 128
WIRE 640 128 640 112
WIRE 640 128 464 128
WIRE 720 128 640 128
WIRE 848 128 848 112
WIRE 848 128 800 128
WIRE 928 128 848 128
WIRE 928 144 928 128
WIRE -32 224 -32 128
WIRE 0 224 -32 224
WIRE 512 224 464 224
WIRE 640 224 592 224
WIRE 848 224 640 224
WIRE 928 224 848 224
WIRE 848 240 848 224
WIRE 928 240 928 224
WIRE -32 320 -32 224
WIRE 0 320 -32 320
WIRE 640 320 640 304
WIRE 640 320 464 320
WIRE 720 320 640 320
WIRE 848 320 848 304
WIRE 848 320 800 320
WIRE 928 320 848 320
WIRE 928 336 928 320
WIRE -32 416 -32 320
WIRE 0 416 -32 416
WIRE 512 416 464 416
WIRE 640 416 592 416
WIRE 848 416 640 416
WIRE 928 416 848 416
WIRE 848 432 848 416
WIRE 928 432 928 416
WIRE -32 512 -32 416
WIRE 0 512 -32 512
WIRE 640 512 640 496
WIRE 640 512 464 512
WIRE 720 512 640 512
WIRE 848 512 848 496
WIRE 848 512 800 512
WIRE 928 512 848 512
WIRE 928 528 928 512
WIRE 0 608 -80 608
WIRE 512 608 464 608
WIRE 688 608 512 608
WIRE 784 608 688 608
WIRE 688 624 688 608
WIRE 784 624 784 608
WIRE -32 704 -32 512
WIRE 0 704 -32 704
WIRE 512 704 512 688
WIRE 512 704 464 704
WIRE 576 704 512 704
WIRE 688 704 688 688
WIRE 688 704 656 704
WIRE 784 704 688 704
WIRE 784 720 784 704
WIRE 0 784 -16 784
WIRE 480 784 464 784
WIRE 96 880 96 864
WIRE 192 880 192 864
WIRE 288 880 288 864
WIRE 384 880 384 864
FLAG -144 -128 0
FLAG -144 -240 IN
FLAG 928 144 0
FLAG 928 32 OUT2
FLAG 928 336 0
FLAG 928 224 OUT3
FLAG 784 720 0
FLAG 784 608 OUT5
FLAG 480 784 0
FLAG 384 880 0
FLAG 288 880 0
FLAG 192 880 0
FLAG 96 880 0
FLAG -16 784 0
FLAG -80 608 OUT1
FLAG 928 -48 0
FLAG 928 -160 OUT1
FLAG 928 528 0
FLAG 928 416 OUT4
SYMBOL voltage -144 -240 R0
WINDOW 123 0 0 Left 0
WINDOW 39 0 0 Left 0
SYMATTR InstName V1
SYMATTR Value 4.5
SYMBOL ind 496 -144 R270
WINDOW 0 32 56 VTop 2
WINDOW 3 5 56 VBottom 2
SYMATTR InstName L1
SYMATTR Value 1µ
SYMATTR SpiceLine Rser=86m
SYMBOL ind 496 48 R270
WINDOW 0 32 56 VTop 2
WINDOW 3 5 56 VBottom 2
SYMATTR InstName L2
SYMATTR Value 1µ
SYMATTR SpiceLine Rser=86m
SYMBOL res 624 16 R0
SYMATTR InstName R3
SYMATTR Value 1.62k
SYMBOL res 704 144 R270
WINDOW 0 32 56 VTop 2
WINDOW 3 0 56 VBottom 2
SYMATTR InstName R4
SYMATTR Value 6.49k
SYMBOL res 912 32 R0
SYMATTR InstName Rload2
SYMATTR Value 2
SYMBOL ind 496 240 R270
WINDOW 0 32 56 VTop 2
WINDOW 3 5 56 VBottom 2
SYMATTR InstName L3
SYMATTR Value 1µ
SYMATTR SpiceLine Rser=86m
SYMBOL res 624 208 R0
SYMATTR InstName R5
SYMATTR Value 5.36k
SYMBOL res 704 336 R270
WINDOW 0 32 56 VTop 2
WINDOW 3 0 56 VBottom 2
SYMATTR InstName R6
SYMATTR Value 9.53k
SYMBOL res 912 224 R0
WINDOW 3 36 68 Left 2
SYMATTR Value 2
SYMATTR InstName Rload3
SYMBOL res 496 592 R0
SYMATTR InstName R9
SYMATTR Value 18.7k
SYMBOL res 560 720 R270
WINDOW 0 32 56 VTop 2
WINDOW 3 0 56 VBottom 2
SYMATTR InstName R10
SYMATTR Value 15k
SYMBOL cap 672 624 R0
SYMATTR InstName C5
SYMATTR Value 1µ
SYMATTR SpiceLine Rser=2m
SYMBOL res 768 608 R0
SYMATTR InstName Rload5
SYMATTR Value 9
SYMBOL res 608 -256 R90
WINDOW 0 0 56 VBottom 2
WINDOW 3 32 56 VTop 2
SYMATTR InstName R11
SYMATTR Value 100K
SYMBOL ind 496 432 R270
WINDOW 0 32 56 VTop 2
WINDOW 3 5 56 VBottom 2
SYMATTR InstName L4
SYMATTR Value 1µ
SYMATTR SpiceLine Rser=86m
SYMBOL ADP5138-2 240 320 R0
SYMATTR InstName U1
SYMBOL res 624 -176 R0
SYMATTR InstName R1
SYMATTR Value 35.7k
SYMBOL res 704 -48 R270
WINDOW 0 32 56 VTop 2
WINDOW 3 0 56 VBottom 2
SYMATTR InstName R2
SYMATTR Value 11.5k
SYMBOL cap 832 -144 R0
SYMATTR InstName C1
SYMATTR Value 10µ
SYMATTR SpiceLine Rser=6m
SYMBOL res 912 -160 R0
SYMATTR InstName Rload1
SYMATTR Value 13.2
SYMBOL res 624 400 R0
SYMATTR InstName R7
SYMATTR Value 19.6k
SYMBOL res 704 528 R270
WINDOW 0 32 56 VTop 2
WINDOW 3 0 56 VBottom 2
SYMATTR InstName R8
SYMATTR Value 28.7k
SYMBOL cap 832 48 R0
SYMATTR InstName C2
SYMATTR Value 10µ
SYMATTR SpiceLine Rser=6m
SYMBOL res 912 416 R0
WINDOW 3 36 68 Left 2
SYMATTR Value 2
SYMATTR InstName Rload4
SYMBOL cap 832 240 R0
SYMATTR InstName C3
SYMATTR Value 10µ
SYMATTR SpiceLine Rser=6m
SYMBOL cap 832 432 R0
SYMATTR InstName C4
SYMATTR Value 10µ
SYMATTR SpiceLine Rser=6m
TEXT 560 840 Left 2 !.tran 1.4m startup
