Version 4
SHEET 1 7208 5924
WIRE 2880 400 2224 400
WIRE 2912 400 2880 400
WIRE 2960 400 2912 400
WIRE 3056 400 2960 400
WIRE 3168 400 3136 400
WIRE 2960 416 2960 400
WIRE 3168 416 3168 400
WIRE 2224 432 2224 400
WIRE 2400 480 2368 480
WIRE 2512 480 2480 480
WIRE 2512 496 2512 480
WIRE 2960 496 2960 480
WIRE 2368 528 2368 480
WIRE 2960 624 2800 624
WIRE 3040 624 2960 624
WIRE 3232 624 3136 624
WIRE 3264 624 3232 624
WIRE 3360 624 3328 624
WIRE 2496 640 2496 608
WIRE 3360 640 3360 624
WIRE 2368 656 2368 608
WIRE 2224 688 2224 512
WIRE 2368 688 2368 656
WIRE 2496 688 2496 640
WIRE 2800 688 2800 624
WIRE 2880 688 2880 400
WIRE 2960 688 2960 624
WIRE 3040 688 3040 624
WIRE 3136 688 3136 624
WIRE 3232 688 3232 624
WIRE 3536 880 3472 880
WIRE 3536 928 3536 880
WIRE 3536 928 3472 928
WIRE 3536 960 3536 928
WIRE 3536 1040 3536 1024
WIRE 2688 1360 2688 1328
WIRE 2224 1456 2224 1328
WIRE 2336 1456 2336 1328
WIRE 2336 1456 2224 1456
WIRE 2688 1456 2688 1440
WIRE 2688 1456 2336 1456
WIRE 2800 1456 2800 1328
WIRE 2800 1456 2688 1456
WIRE 3312 1456 3312 1328
WIRE 3312 1456 2800 1456
WIRE 2688 1488 2688 1456
FLAG 2688 1488 0
FLAG 2512 496 0
FLAG 2368 656 PG
FLAG 3168 416 0
FLAG 2960 496 0
FLAG 3536 880 5V
FLAG 2912 400 VIN
FLAG 3040 624 6P6V
FLAG 2496 640 TCHIP
FLAG 3536 1040 0
FLAG 3360 640 0
SYMBOL res 2672 1344 R0
SYMATTR InstName RISET
SYMATTR Value 120
SYMBOL res 2352 512 R0
SYMATTR InstName RPG
SYMATTR Value 10k
SYMBOL voltage 2384 480 R270
WINDOW 0 32 56 VTop 2
WINDOW 3 -32 56 VBottom 2
SYMATTR InstName VPG
SYMATTR Value 5
SYMBOL voltage 3040 400 R270
WINDOW 0 41 59 VTop 2
WINDOW 3 -39 58 VBottom 2
SYMATTR InstName VIN
SYMATTR Value 15
SYMBOL cap 2944 480 M180
WINDOW 0 24 56 Left 2
WINDOW 3 24 8 Left 2
SYMATTR InstName CIN
SYMATTR Value 1u
SYMBOL cap 3328 608 R90
WINDOW 0 0 32 VBottom 2
WINDOW 3 32 32 VTop 2
SYMATTR InstName CNF
SYMATTR Value 1u
SYMBOL cap 3520 960 R0
SYMATTR InstName COUT
SYMATTR Value 1u
SYMBOL ADR1001 2832 1024 R0
SYMATTR InstName U1
SYMBOL voltage 2224 416 R0
SYMATTR InstName VIHeater
SYMATTR Value 0
TEXT 2192 1512 Left 2 !.tran 10 startup
