Version 4
SHEET 1 3080 680
WIRE -1808 -448 -2288 -448
WIRE -1728 -448 -1808 -448
WIRE -1120 -448 -1424 -448
WIRE -992 -448 -1040 -448
WIRE -864 -448 -992 -448
WIRE -816 -448 -864 -448
WIRE -2288 -416 -2288 -448
WIRE -992 -416 -992 -448
WIRE -1808 -384 -2192 -384
WIRE -1728 -384 -1808 -384
WIRE -1232 -384 -1424 -384
WIRE -1232 -368 -1232 -384
WIRE -2192 -352 -2192 -384
WIRE -992 -336 -992 -352
WIRE -1728 -320 -2064 -320
WIRE -1392 -320 -1424 -320
WIRE -1728 -240 -1760 -240
WIRE -1232 -240 -1424 -240
WIRE -2064 -224 -2064 -320
WIRE -1232 -224 -1232 -240
WIRE -1728 -176 -1984 -176
WIRE -1392 -176 -1424 -176
WIRE -1984 -128 -1984 -176
WIRE -1728 -112 -1872 -112
WIRE -1120 -112 -1424 -112
WIRE -992 -112 -1040 -112
WIRE -864 -112 -992 -112
WIRE -816 -112 -864 -112
WIRE -1872 -80 -1872 -112
WIRE -992 -80 -992 -112
WIRE -2288 16 -2288 -336
WIRE -2192 16 -2192 -272
WIRE -2064 16 -2064 -144
WIRE -1984 16 -1984 -48
WIRE -1872 16 -1872 0
WIRE -992 16 -992 -16
FLAG -1984 16 0
FLAG -1392 -176 0
FLAG -1232 -144 0
FLAG -864 -112 Gate_B
FLAG -864 -448 Gate_A
FLAG -992 16 0
FLAG -2288 16 0
FLAG -2064 16 0
FLAG -992 -336 0
FLAG -1808 -448 VIA
FLAG -1392 -320 0
FLAG -1760 -240 0
FLAG -1872 16 0
FLAG -1232 -288 0
FLAG -2192 16 0
FLAG -1808 -384 VIB
SYMBOL cap -1008 -416 R0
SYMATTR InstName C4
SYMATTR Value 2.2n
SYMBOL cap -1008 -80 R0
SYMATTR InstName C5
SYMATTR Value 2.2n
SYMBOL res -1024 -464 R90
WINDOW 0 0 56 VBottom 2
WINDOW 3 32 56 VTop 2
SYMATTR InstName R2
SYMATTR Value 5.1
SYMBOL res -1024 -128 R90
WINDOW 0 0 56 VBottom 2
WINDOW 3 32 56 VTop 2
SYMATTR InstName R3
SYMATTR Value 5.1
SYMBOL voltage -2288 -432 R0
WINDOW 0 26 98 Left 2
WINDOW 3 33 16 Left 2
WINDOW 123 0 0 Left 0
WINDOW 39 0 0 Left 0
SYMATTR InstName V1
SYMATTR Value PULSE(0 5 0 2n 2n 5u 10u)
SYMBOL voltage -1984 -144 R0
WINDOW 123 0 0 Left 0
WINDOW 39 0 0 Left 0
SYMATTR InstName V4
SYMATTR Value 0
SYMBOL voltage -2064 -240 R0
SYMATTR InstName V3
SYMATTR Value 5
SYMBOL voltage -1232 -240 R0
WINDOW 123 0 0 Left 0
WINDOW 39 0 0 Left 0
WINDOW 0 42 34 Left 2
WINDOW 3 45 64 Left 2
SYMATTR InstName V6
SYMATTR Value 15
SYMBOL res -1888 -96 R0
SYMATTR InstName R1
SYMATTR Value 10K
SYMBOL voltage -1232 -384 R0
WINDOW 123 0 0 Left 0
WINDOW 39 0 0 Left 0
WINDOW 0 43 29 Left 2
WINDOW 3 46 61 Left 2
SYMATTR InstName V5
SYMATTR Value 15
SYMBOL voltage -2192 -368 R0
WINDOW 0 26 98 Left 2
WINDOW 3 33 16 Left 2
WINDOW 123 0 0 Left 0
WINDOW 39 0 0 Left 0
SYMATTR InstName V2
SYMATTR Value PULSE(5 0 0 2n 2n 5u 10u)
SYMBOL ADuM4221C -1568 -352 R0
SYMATTR InstName U1
TEXT -1632 -24 Left 2 !.tran 50u
