Version 4
SHEET 1 3080 680
WIRE -1824 -432 -2208 -432
WIRE -1728 -432 -1824 -432
WIRE -1136 -432 -1424 -432
WIRE -1008 -432 -1056 -432
WIRE -880 -432 -1008 -432
WIRE -832 -432 -880 -432
WIRE -1008 -400 -1008 -432
WIRE -2208 -384 -2208 -432
WIRE -1248 -368 -1424 -368
WIRE -1728 -352 -2096 -352
WIRE -1248 -352 -1248 -368
WIRE -1008 -320 -1008 -336
WIRE -1392 -304 -1424 -304
WIRE -2096 -288 -2096 -352
WIRE -1728 -272 -1760 -272
WIRE -1248 -224 -1424 -224
WIRE -1248 -208 -1248 -224
WIRE -1728 -176 -1984 -176
WIRE -1392 -160 -1424 -160
WIRE -1728 -112 -1872 -112
WIRE -1136 -96 -1424 -96
WIRE -1008 -96 -1056 -96
WIRE -880 -96 -1008 -96
WIRE -832 -96 -880 -96
WIRE -1984 -80 -1984 -176
WIRE -1872 -64 -1872 -112
WIRE -1008 -64 -1008 -96
WIRE -1008 32 -1008 0
WIRE -2208 128 -2208 -304
WIRE -2096 128 -2096 -208
WIRE -1984 128 -1984 0
WIRE -1872 128 -1872 16
FLAG -1984 128 0
FLAG -1392 -160 0
FLAG -2208 128 0
FLAG -2096 128 0
FLAG -1824 -432 Vin
FLAG -1392 -304 0
FLAG -1760 -272 0
FLAG -1872 128 0
FLAG -1248 -128 0
FLAG -880 -96 Gate_B
FLAG -880 -432 Gate_A
FLAG -1008 32 0
FLAG -1008 -320 0
FLAG -1248 -272 0
SYMBOL voltage -2208 -400 R0
WINDOW 0 26 98 Left 2
WINDOW 3 33 16 Left 2
WINDOW 123 0 0 Left 0
WINDOW 39 0 0 Left 0
SYMATTR InstName V1
SYMATTR Value PULSE(0 5 0 2n 2n 5u 10u)
SYMBOL voltage -1984 -96 R0
WINDOW 123 0 0 Left 0
WINDOW 39 0 0 Left 0
SYMATTR InstName V3
SYMATTR Value 0
SYMBOL voltage -2096 -304 R0
SYMATTR InstName V2
SYMATTR Value 5
SYMBOL res -1888 -80 R0
SYMATTR InstName R1
SYMATTR Value 10k
SYMBOL ADuM4221-1A -1568 -336 R0
SYMATTR InstName U1
SYMBOL cap -1024 -400 R0
SYMATTR InstName C1
SYMATTR Value 2.2n
SYMBOL cap -1024 -64 R0
SYMATTR InstName C2
SYMATTR Value 2.2n
SYMBOL res -1040 -448 R90
WINDOW 0 0 56 VBottom 2
WINDOW 3 32 56 VTop 2
SYMATTR InstName R2
SYMATTR Value 5.1
SYMBOL res -1040 -112 R90
WINDOW 0 0 56 VBottom 2
WINDOW 3 32 56 VTop 2
SYMATTR InstName R3
SYMATTR Value 5.1
SYMBOL voltage -1248 -224 R0
WINDOW 123 0 0 Left 0
WINDOW 39 0 0 Left 0
WINDOW 0 42 34 Left 2
WINDOW 3 45 64 Left 2
SYMATTR InstName V4
SYMATTR Value 15
SYMBOL voltage -1248 -368 R0
WINDOW 123 0 0 Left 0
WINDOW 39 0 0 Left 0
WINDOW 0 43 29 Left 2
WINDOW 3 46 61 Left 2
SYMATTR InstName V5
SYMATTR Value 15
TEXT -1624 -16 Left 2 !.tran 50u
