Version 4
SHEET 1 880 680
WIRE 160 -16 0 -16
WIRE 480 -16 320 -16
WIRE 0 0 0 -16
WIRE 480 0 480 -16
WIRE 160 48 160 -16
WIRE 320 48 320 -16
WIRE 0 96 0 80
WIRE 480 96 480 80
WIRE 112 160 -304 160
WIRE 400 160 368 160
WIRE 496 160 480 160
WIRE 544 160 496 160
WIRE 576 160 544 160
WIRE -304 176 -304 160
WIRE 544 176 544 160
WIRE 112 240 96 240
WIRE 400 240 368 240
WIRE 496 240 496 160
WIRE 496 240 480 240
WIRE 544 256 544 240
WIRE -304 272 -304 256
WIRE 160 352 160 336
WIRE 320 352 320 336
FLAG 544 256 0
FLAG 480 96 0
FLAG 0 96 0
FLAG -304 272 0
FLAG 320 352 0
FLAG 160 352 0
FLAG 96 240 0
FLAG -304 160 IN
FLAG 576 160 OUT
SYMBOL voltage 0 -16 R0
SYMATTR InstName V1
SYMATTR Value 5
SYMBOL voltage 480 -16 R0
WINDOW 123 24 138 Left 2
WINDOW 39 24 117 Left 2
SYMATTR InstName V2
SYMATTR Value 15
SYMBOL res 496 144 R90
WINDOW 0 0 56 VBottom 2
WINDOW 3 32 56 VTop 2
SYMATTR InstName R1
SYMATTR Value 10
SYMBOL cap 528 176 R0
SYMATTR InstName C1
SYMATTR Value 2n
SYMBOL voltage -304 160 R0
WINDOW 123 24 138 Left 2
WINDOW 39 24 117 Left 2
SYMATTR InstName V3
SYMATTR Value PULSE(0 5 0 2n 2n 998n 2u)
SYMBOL ADuM4122A 240 160 R0
SYMATTR InstName U1
SYMBOL res 496 224 R90
WINDOW 0 0 56 VBottom 2
WINDOW 3 32 56 VTop 2
SYMATTR InstName R2
SYMATTR Value 10
TEXT 416 336 Left 2 !.tran 10u
