Version 4
SHEET 1 1068 680
WIRE -112 64 -256 64
WIRE 224 64 -112 64
WIRE -256 80 -256 64
WIRE -112 80 -112 64
WIRE 224 96 224 64
WIRE 0 160 -16 160
WIRE 96 160 80 160
WIRE 400 160 352 160
WIRE 528 160 400 160
WIRE 624 160 528 160
WIRE 736 160 624 160
WIRE -256 176 -256 160
WIRE -112 176 -112 144
WIRE 400 176 400 160
WIRE 624 176 624 160
WIRE 736 176 736 160
WIRE 528 192 528 160
WIRE 0 256 -16 256
WIRE 96 256 80 256
WIRE 400 256 352 256
WIRE 528 272 528 256
WIRE 624 272 624 256
WIRE 624 272 528 272
WIRE 736 272 736 256
WIRE 528 288 528 272
WIRE 224 336 224 320
WIRE 320 336 224 336
WIRE 320 416 320 400
WIRE 320 416 224 416
WIRE 224 432 224 416
FLAG -16 160 0
FLAG -16 256 0
FLAG 224 432 0
FLAG -256 176 0
FLAG -256 64 IN
FLAG 736 160 OUT
FLAG 528 288 0
FLAG 736 272 0
FLAG -112 176 0
SYMBOL res 96 144 R90
WINDOW 0 0 56 VBottom 2
WINDOW 3 32 56 VTop 2
SYMATTR InstName R1
SYMATTR Value 1K
SYMBOL res 96 240 R90
WINDOW 0 0 56 VBottom 2
WINDOW 3 32 56 VTop 2
SYMATTR InstName R2
SYMATTR Value 1K
SYMBOL res 208 320 R0
SYMATTR InstName R3
SYMATTR Value 30.1K
SYMBOL res 384 160 R0
SYMATTR InstName R4
SYMATTR Value 5.1k
SYMBOL voltage -256 64 R0
SYMATTR InstName V1
SYMATTR Value 5
SYMBOL cap 512 192 R0
SYMATTR InstName C1
SYMATTR Value 10µ
SYMATTR SpiceLine V=6.3 Irms=0 Rser=0.001 Lser=0 mfg="TDK" pn="C3216X5ROJ106M" type="X5R"
SYMBOL res 720 160 R0
SYMATTR InstName Rload
SYMATTR Value 1.875
SYMBOL LT3089 224 208 R0
SYMATTR InstName U1
SYMBOL cap 304 336 R0
SYMATTR InstName C2
SYMATTR Value 0.01µ
SYMBOL res 608 160 R0
SYMATTR InstName R5
SYMATTR Value 390
SYMBOL cap -128 80 R0
SYMATTR InstName C3
SYMATTR Value 1µ
TEXT 432 352 Left 2 !.tran .1 startup
