Version 4
SHEET 1 1880 1332
WIRE 368 -352 272 -352
WIRE 512 -352 448 -352
WIRE 560 -352 512 -352
WIRE 672 -352 624 -352
WIRE 912 -352 672 -352
WIRE 1120 -352 912 -352
WIRE 672 -320 672 -352
WIRE 912 -288 912 -352
WIRE 912 -288 832 -288
WIRE 912 -272 912 -288
WIRE 672 -224 672 -256
WIRE 912 -160 912 -192
WIRE 912 -160 848 -160
WIRE 80 -144 -128 -144
WIRE 112 -144 80 -144
WIRE 512 -144 512 -352
WIRE 512 -144 432 -144
WIRE -128 -112 -128 -144
WIRE -16 -96 -32 -96
WIRE 80 -96 80 -144
WIRE 80 -96 64 -96
WIRE 912 -64 912 -160
WIRE -32 -48 -32 -96
WIRE 112 -48 -32 -48
WIRE 864 -48 432 -48
WIRE -128 -16 -128 -32
WIRE -32 0 -32 -48
WIRE -16 0 -32 0
WIRE 80 0 64 0
WIRE 112 48 -128 48
WIRE 832 48 832 -288
WIRE 832 48 432 48
WIRE 912 80 912 32
WIRE 1120 128 1120 -352
WIRE -128 144 -128 48
WIRE -48 144 -128 144
WIRE 112 144 32 144
WIRE 848 144 848 -160
WIRE 848 144 432 144
WIRE 912 192 912 144
WIRE -48 240 -128 240
WIRE 112 240 32 240
WIRE 1120 240 1120 208
WIRE 1120 240 432 240
WIRE 1120 272 1120 240
WIRE 112 336 -128 336
WIRE 1120 368 1120 352
WIRE 112 432 -128 432
WIRE -128 528 -128 432
WIRE 112 528 -128 528
WIRE -128 592 -128 528
WIRE 112 624 0 624
WIRE -128 688 -128 672
FLAG -128 -16 0
FLAG -128 240 0
FLAG 0 624 0
FLAG 672 -224 0
FLAG 912 192 0
FLAG 1120 368 0
FLAG -128 688 0
FLAG 272 -352 IN
FLAG -128 -144 IN
FLAG 80 0 0
SYMBOL voltage -128 -128 R0
WINDOW 123 0 0 Left 0
WINDOW 39 0 0 Left 0
SYMATTR InstName V1
SYMATTR Value 12
SYMBOL res 48 224 R90
WINDOW 0 0 56 VBottom 2
WINDOW 3 32 56 VTop 2
SYMATTR InstName R1
SYMATTR Value 47.5k
SYMBOL ind 352 -336 R270
WINDOW 0 32 56 VTop 2
WINDOW 3 5 56 VBottom 2
WINDOW 39 129 41 VTop 2
WINDOW 40 98 114 VTop 2
SYMATTR InstName L1
SYMATTR Value 10µ
SYMATTR SpiceLine Ipk=1.2 Rser=0.28 Rpar=14215.5 Cpar=8.016p
SYMATTR SpiceLine2 mfg="Würth Elektronik" pn="74438336100 WE-MAPI 3020"
SYMBOL schottky 560 -336 R270
WINDOW 0 32 32 VTop 2
WINDOW 3 89 36 VBottom 2
SYMATTR InstName D1
SYMATTR Value PMEG6010AED
SYMATTR Description Diode
SYMATTR Type diode
SYMBOL cap 656 -320 R0
WINDOW 39 24 79 Left 2
WINDOW 123 24 79 Left 2
SYMATTR Value2 x2
SYMATTR InstName C1
SYMATTR Value 2.2µ
SYMBOL res 896 -288 R0
SYMATTR InstName R3
SYMATTR Value 2
SYMBOL pmos 864 32 M180
SYMATTR InstName M1
SYMATTR Value FQB11P06
SYMBOL res 1104 112 R0
SYMATTR InstName R4
SYMATTR Value 1Meg
SYMBOL res 1104 256 R0
SYMATTR InstName R5
SYMATTR Value 22.6k
SYMBOL voltage -128 576 R0
WINDOW 123 0 0 Left 0
WINDOW 39 0 0 Left 0
SYMATTR InstName V2
SYMATTR Value 2
SYMBOL res 48 128 R90
WINDOW 0 0 56 VBottom 2
WINDOW 3 32 56 VTop 2
SYMATTR InstName R10
SYMATTR Value 100k
SYMBOL res 80 -112 R90
WINDOW 0 0 56 VBottom 2
WINDOW 3 32 56 VTop 2
SYMATTR InstName R2
SYMATTR Value 499k
SYMBOL res 80 -16 R90
WINDOW 0 0 56 VBottom 2
WINDOW 3 32 56 VTop 2
SYMATTR InstName R7
SYMATTR Value 84.5k
SYMBOL LED 896 80 R0
WINDOW 123 24 92 Left 2
SYMATTR Value2 N=16
SYMATTR InstName D3
SYMATTR Value QTLP690C
SYMATTR Description Diode
SYMATTR Type diode
SYMBOL LT3966 272 240 R0
SYMATTR InstName U2
TEXT -864 8 Left 2 !.param LATOFFch1 = 1
TEXT -864 192 Left 2 !.param DIMENch1 = 0
TEXT -864 -184 Left 2 !.param ADR2 = 1\n.param ADR1 = 0
TEXT -864 680 Left 2 !.param SCL2ch1 = 0\n.param SCL1ch1 = 0\n.param SCL0ch1 = 0
TEXT -864 224 Left 2 !.param DIM12ch1=0\n.param DIM11ch1=0\n.param DIM10ch1=0\n.param DIM9ch1=0\n.param DIM8ch1=0\n.param DIM7ch1=0\n.param DIM6ch1=0\n.param DIM5ch1=0\n.param DIM4ch1=0\n.param DIM3ch1=1\n.param DIM2ch1=1\n.param DIM1ch1=0\n.param DIM0ch1=1
TEXT -864 32 Left 2 !.param OC_ENch1 = 1\n.param SHORT_ENch1 = 1\n.param OPEN_ENch1 = 1\n.param OVFB_ENch1 = 1
TEXT -864 768 Left 2 !.param BAMch1 = 0
TEXT -864 616 Left 2 !.param ADIMch1 = 255
TEXT 112 832 Left 2 !.tran 5m startup
TEXT -536 8 Left 2 !.param LATOFFch2 = 1
TEXT -536 32 Left 2 !.param OC_ENch2 = 1\n.param SHORT_ENch2 = 1\n.param OPEN_ENch2 = 1\n.param OVFB_ENch2 = 1
TEXT -528 192 Left 2 !.param DIMENch2 = 0
TEXT -528 680 Left 2 !.param SCL2ch2 = 0\n.param SCL1ch2 = 0\n.param SCL0ch2 = 0
TEXT -528 224 Left 2 !.param DIM12ch2=0\n.param DIM11ch2=0\n.param DIM10ch2=0\n.param DIM9ch2=0\n.param DIM8ch2=0\n.param DIM7ch2=0\n.param DIM6ch2=0\n.param DIM5ch2=0\n.param DIM4ch2=0\n.param DIM3ch2=1\n.param DIM2ch2=1\n.param DIM1ch2=0\n.param DIM0ch2=1
TEXT -528 768 Left 2 !.param BAMch2 = 0
TEXT -528 616 Left 2 !.param ADIMch2 = 255
TEXT -864 -128 Left 2 !.param SYNCOUT = 1\n.param MPHASE = 0\n.param INPH = 0
