Version 4
SHEET 1 1032 824
WIRE 192 -208 192 -224
WIRE 192 -128 192 -144
WIRE -48 -96 -240 -96
WIRE -16 -96 -48 -96
WIRE 448 -96 400 -96
WIRE -240 -80 -240 -96
WIRE -48 -16 -48 -96
WIRE -16 -16 -48 -16
WIRE 448 -16 448 -32
WIRE 448 -16 400 -16
WIRE 528 -16 448 -16
WIRE 656 -16 608 -16
WIRE 736 -16 656 -16
WIRE 832 -16 736 -16
WIRE 736 0 736 -16
WIRE -240 16 -240 0
WIRE -48 64 -64 64
WIRE -16 64 -48 64
WIRE 448 64 400 64
WIRE 656 64 656 -16
WIRE 656 64 448 64
WIRE 736 80 736 64
WIRE -48 144 -48 64
WIRE -16 144 -48 144
WIRE 448 144 400 144
WIRE 544 144 448 144
WIRE 640 144 624 144
WIRE -112 224 -128 224
WIRE -16 224 -32 224
WIRE 832 224 832 -16
WIRE 832 224 400 224
WIRE 832 304 400 304
WIRE 832 368 832 304
WIRE -16 384 -32 384
WIRE 784 384 400 384
WIRE -112 464 -144 464
WIRE -16 464 -48 464
WIRE 832 480 832 464
WIRE -128 544 -144 544
WIRE -16 544 -48 544
WIRE 416 544 400 544
WIRE 832 560 832 544
WIRE 128 592 128 576
WIRE 272 592 272 576
WIRE 128 688 128 672
WIRE 272 688 272 672
WIRE 272 768 272 752
FLAG -240 16 0
FLAG -32 384 0
FLAG 416 544 0
FLAG 192 -224 0
FLAG -144 464 0
FLAG -144 544 0
FLAG 128 688 0
FLAG 272 768 0
FLAG 736 80 0
FLAG 832 560 0
FLAG -240 -96 IN
FLAG 832 -16 OUT
FLAG 640 144 0
FLAG -128 224 0
FLAG -128 64 0
SYMBOL voltage -240 -96 R0
SYMATTR InstName V1
SYMATTR Value 20
SYMBOL cap -48 448 R90
WINDOW 0 0 32 VBottom 2
WINDOW 3 32 32 VTop 2
SYMATTR InstName C1
SYMATTR Value 1n
SYMBOL res -32 528 R90
WINDOW 0 0 56 VBottom 2
WINDOW 3 32 56 VTop 2
SYMATTR InstName R1
SYMATTR Value 28.7K
SYMBOL res 112 576 R0
SYMATTR InstName R2
SYMATTR Value 45.3K
SYMBOL cap 256 688 R0
SYMATTR Value 100p
SYMATTR InstName C2
SYMBOL cap 176 -208 R0
SYMATTR InstName C3
SYMATTR Value 1µ
SYMBOL ind 512 0 R270
WINDOW 0 32 56 VTop 2
WINDOW 3 5 56 VBottom 2
SYMATTR InstName L1
SYMATTR Value 2.2µ
SYMATTR Value2 Rser=10m
SYMBOL cap 720 0 R0
SYMATTR InstName C5
SYMATTR Value 2.2µ
SYMBOL res 816 208 R0
SYMATTR InstName R3
SYMATTR Value 25m
SYMBOL LED 816 480 R0
WINDOW 123 43 68 Left 2
WINDOW 3 79 37 Left 2
SYMATTR Value2 n=2
SYMATTR Value LXK2-PW14
SYMATTR InstName D1
SYMATTR Description Diode
SYMATTR Type diode
SYMBOL pmos 784 464 M180
WINDOW 0 60 76 Left 2
WINDOW 3 59 40 Left 2
SYMATTR InstName M1
SYMATTR Value IRF7343P
SYMBOL res 432 48 R0
SYMATTR InstName R4
SYMATTR Value 140K
SYMBOL res 528 160 R270
WINDOW 0 32 56 VTop 2
WINDOW 3 0 56 VBottom 2
SYMATTR InstName R5
SYMATTR Value 10K
SYMBOL voltage -16 224 R90
WINDOW 0 -32 56 VBottom 2
WINDOW 3 32 56 VTop 2
SYMATTR InstName V2
SYMATTR Value 1.5
SYMBOL LT3934S 192 224 R0
SYMATTR InstName U1
SYMBOL res 256 576 R0
SYMATTR InstName R6
SYMATTR Value 10k
SYMBOL cap -64 48 R90
WINDOW 0 0 32 VBottom 2
WINDOW 3 32 32 VTop 2
SYMATTR InstName C4
SYMATTR Value 1µ
SYMBOL cap 432 -96 R0
SYMATTR InstName C6
SYMATTR Value 100n
TEXT 528 640 Left 2 !.tran 2m startup
