Version 4
SHEET 1 6044 680
WIRE 1408 -2512 1376 -2512
WIRE 1440 -2512 1408 -2512
WIRE 1568 -2512 1520 -2512
WIRE 1680 -2512 1632 -2512
WIRE 1776 -2512 1744 -2512
WIRE 1888 -2512 1776 -2512
WIRE 2032 -2512 1984 -2512
WIRE 2080 -2512 2032 -2512
WIRE 2112 -2512 2080 -2512
WIRE 2224 -2512 2192 -2512
WIRE 2288 -2512 2224 -2512
WIRE 2320 -2512 2288 -2512
WIRE 3136 -2512 2320 -2512
WIRE 3264 -2512 3136 -2512
WIRE 3520 -2512 3392 -2512
WIRE 3584 -2512 3520 -2512
WIRE 3712 -2512 3664 -2512
WIRE 3840 -2512 3712 -2512
WIRE 3952 -2512 3840 -2512
WIRE 3984 -2512 3952 -2512
WIRE 2080 -2464 2080 -2512
WIRE 2224 -2464 2224 -2512
WIRE 3840 -2464 3840 -2512
WIRE 3136 -2448 3136 -2512
WIRE 3264 -2448 3264 -2512
WIRE 3392 -2448 3392 -2512
WIRE 3520 -2448 3520 -2512
WIRE 3712 -2448 3712 -2512
WIRE 1776 -2432 1776 -2512
WIRE 2288 -2432 2288 -2512
WIRE 2320 -2432 2288 -2432
WIRE 2496 -2432 2400 -2432
WIRE 2656 -2432 2592 -2432
WIRE 2720 -2432 2656 -2432
WIRE 2848 -2432 2800 -2432
WIRE 2928 -2432 2848 -2432
WIRE 2656 -2384 2656 -2432
WIRE 2848 -2384 2848 -2432
WIRE 2080 -2352 2080 -2400
WIRE 2224 -2352 2224 -2400
WIRE 3520 -2352 3520 -2384
WIRE 3712 -2352 3712 -2384
WIRE 3840 -2352 3840 -2384
WIRE 1776 -2304 1776 -2352
WIRE 1776 -2304 1680 -2304
WIRE 1968 -2304 1968 -2464
WIRE 1968 -2304 1824 -2304
WIRE 2544 -2304 2544 -2368
WIRE 2544 -2304 2384 -2304
WIRE 3136 -2304 3136 -2384
WIRE 3264 -2304 3264 -2368
WIRE 3264 -2304 3136 -2304
WIRE 3392 -2304 3392 -2368
WIRE 3488 -2304 3392 -2304
WIRE 3584 -2304 3488 -2304
WIRE 3712 -2304 3648 -2304
WIRE 1680 -2272 1680 -2304
WIRE 1824 -2272 1824 -2304
WIRE 2656 -2272 2656 -2320
WIRE 2848 -2272 2848 -2320
WIRE 3488 -2272 3488 -2304
WIRE 2032 -2224 2032 -2512
WIRE 2192 -2224 2032 -2224
WIRE 2928 -2224 2928 -2432
WIRE 2928 -2224 2480 -2224
WIRE 1680 -2192 1680 -2208
WIRE 1824 -2192 1824 -2208
WIRE 3712 -2192 3536 -2192
WIRE 1968 -2176 1968 -2304
WIRE 2080 -2176 1968 -2176
WIRE 1776 -2144 1776 -2304
WIRE 1984 -2144 1776 -2144
WIRE 2640 -2144 2592 -2144
WIRE 2768 -2144 2720 -2144
WIRE 3488 -2144 3488 -2176
WIRE 3264 -2112 3264 -2304
WIRE 3584 -2096 3552 -2096
WIRE 3712 -2096 3712 -2192
WIRE 3712 -2096 3680 -2096
WIRE 3744 -2096 3712 -2096
WIRE 3984 -2096 3984 -2512
WIRE 3984 -2096 3840 -2096
WIRE 1904 -2080 1904 -2112
WIRE 1984 -2080 1984 -2144
WIRE 2080 -2080 2080 -2176
WIRE 2192 -2080 2192 -2224
WIRE 2288 -2080 2288 -2432
WIRE 2384 -2080 2384 -2304
WIRE 2480 -2080 2480 -2224
WIRE 2592 -2080 2592 -2144
WIRE 1648 -2032 1600 -2032
WIRE 1776 -2032 1728 -2032
WIRE 3216 -2032 2704 -2032
WIRE 3264 -2000 3264 -2016
WIRE 3264 -2000 3200 -2000
WIRE 3632 -2000 3632 -2032
WIRE 3696 -2000 3632 -2000
WIRE 3792 -2000 3792 -2032
WIRE 3792 -2000 3696 -2000
WIRE 3264 -1984 3264 -2000
WIRE 1584 -1952 1552 -1952
WIRE 1776 -1952 1664 -1952
WIRE 3200 -1952 3200 -2000
WIRE 3200 -1952 2704 -1952
WIRE 3696 -1952 3696 -2000
WIRE 1680 -1872 1552 -1872
WIRE 1776 -1872 1744 -1872
WIRE 3264 -1872 3264 -1904
WIRE 3264 -1872 2704 -1872
WIRE 3264 -1856 3264 -1872
WIRE 1584 -1792 1552 -1792
WIRE 1776 -1792 1664 -1792
WIRE 3136 -1792 2704 -1792
WIRE 3264 -1792 3200 -1792
WIRE 3456 -1792 3392 -1792
WIRE 3568 -1792 3520 -1792
WIRE 3696 -1792 3696 -1872
WIRE 3696 -1792 3568 -1792
WIRE 2864 -1744 2816 -1744
WIRE 2976 -1744 2928 -1744
WIRE 3264 -1728 3264 -1792
WIRE 3392 -1728 3392 -1792
WIRE 3568 -1728 3568 -1792
WIRE 3696 -1728 3696 -1792
WIRE 1680 -1712 1648 -1712
WIRE 1776 -1712 1760 -1712
WIRE 2816 -1712 2816 -1744
WIRE 2816 -1712 2704 -1712
WIRE 2976 -1712 2976 -1744
WIRE 3008 -1712 2976 -1712
WIRE 2816 -1648 2816 -1712
WIRE 2864 -1648 2816 -1648
WIRE 2976 -1648 2976 -1712
WIRE 2976 -1648 2928 -1648
WIRE 1584 -1632 1552 -1632
WIRE 1776 -1632 1664 -1632
WIRE 2752 -1632 2704 -1632
WIRE 3264 -1600 3264 -1648
WIRE 3392 -1600 3392 -1648
WIRE 3568 -1600 3568 -1648
WIRE 3696 -1600 3696 -1664
WIRE 2240 -1536 2240 -1568
WIRE 2624 -1504 2576 -1504
WIRE 2752 -1504 2752 -1632
WIRE 2752 -1504 2704 -1504
WIRE 2800 -1504 2752 -1504
WIRE 2912 -1504 2880 -1504
WIRE 3024 -1504 2992 -1504
WIRE 1376 -1456 1376 -2512
WIRE 1376 -1344 1376 -1376
FLAG 3264 -1856 0
FLAG 3840 -2352 0
FLAG 3952 -2512 OUT
FLAG 3696 -1600 0
FLAG 3520 -2352 0
FLAG 3488 -2144 0
FLAG 3552 -2096 0
FLAG 3264 -1600 0
FLAG 3392 -1600 0
FLAG 3568 -1600 0
FLAG 3008 -1712 0
FLAG 3024 -1504 0
FLAG 2576 -1504 0
FLAG 2240 -1536 0
FLAG 3712 -2352 0
FLAG 1408 -2512 PSE
FLAG 1376 -1344 0
FLAG 2656 -2272 0
FLAG 2848 -2272 0
FLAG 2080 -2352 0
FLAG 2224 -2352 0
FLAG 1824 -2192 0
FLAG 2768 -2144 0
FLAG 1552 -1952 0
FLAG 1552 -1872 0
FLAG 1648 -1712 0
FLAG 2320 -2512 Vin
FLAG 1552 -1632 0
FLAG 3712 -2304 0
FLAG 1680 -2192 0
FLAG 1552 -1792 0
FLAG 1904 -2112 0
FLAG 1600 -2032 0
SYMBOL ind2 2896 -1488 R270
WINDOW 0 32 56 VTop 2
WINDOW 3 4 56 VBottom 2
SYMATTR InstName Laux
SYMATTR Value 8.02µ
SYMATTR Type ind
SYMATTR Value2 Rser=233m
SYMBOL res 2896 -1520 R90
WINDOW 0 0 56 VBottom 2
WINDOW 3 32 56 VTop 2
SYMATTR InstName R18
SYMATTR Value 5.9K
SYMBOL res 2720 -1520 R90
WINDOW 0 0 56 VBottom 2
WINDOW 3 32 56 VTop 2
SYMATTR InstName R19
SYMATTR Value 1.96K
SYMBOL res 3248 -2000 R0
SYMATTR InstName Rsense
SYMATTR Value 30m
SYMBOL cap 3120 -2448 R0
WINDOW 3 41 34 Left 2
WINDOW 39 25 62 Left 2
SYMATTR Value 100p
SYMATTR SpiceLine Rser=80
SYMATTR InstName C7
SYMBOL ind2 3248 -2352 M180
WINDOW 0 36 80 Left 2
WINDOW 3 36 40 Left 2
SYMATTR InstName Lpri
SYMATTR Value 26µ
SYMATTR Type ind
SYMATTR Value2 Rser=233m
SYMATTR SpiceLine Rser=94m Rpar=500K
SYMBOL ind2 3376 -2464 R0
SYMATTR InstName Lsec
SYMATTR Value 1.284µ
SYMATTR Type ind
SYMATTR Value2 Rser=233m
SYMATTR SpiceLine Rser=7m Rpar=500K
SYMBOL nmos 3536 -2272 M0
SYMATTR InstName M1
SYMATTR Value PSMN2R430MLD
SYMBOL cap 2928 -1760 R90
WINDOW 0 0 32 VBottom 2
WINDOW 3 32 32 VTop 2
SYMATTR InstName C4
SYMATTR Value 220p
SYMBOL cap 2928 -1664 R90
WINDOW 0 0 32 VBottom 2
WINDOW 3 32 32 VTop 2
WINDOW 39 84 31 VBottom 2
SYMATTR InstName C3
SYMATTR Value 3.3n
SYMATTR SpiceLine Rser=20K
SYMBOL cap 3200 -1808 R90
WINDOW 0 0 32 VBottom 2
WINDOW 3 32 32 VTop 2
WINDOW 39 84 31 VBottom 2
SYMATTR InstName C5
SYMATTR Value 1µ
SYMATTR SpiceLine Rser=100
SYMBOL nmos 3216 -2112 R0
SYMATTR InstName M3
SYMATTR Value BSZ900N20NS3
SYMBOL cap 3504 -2448 R0
WINDOW 3 40 34 Left 2
WINDOW 123 28 62 Left 2
SYMATTR Value 47µ
SYMATTR Value2 X2
SYMATTR InstName C6
SYMATTR SpiceLine Rser=25m
SYMBOL ind 3680 -2496 M270
WINDOW 0 32 56 VTop 2
WINDOW 3 5 56 VBottom 2
SYMATTR InstName L2
SYMATTR Value 180n
SYMATTR SpiceLine Rser=5m
SYMBOL cap 3696 -2448 R0
WINDOW 3 40 34 Left 2
SYMATTR Value 47µ
SYMATTR InstName C8
SYMATTR SpiceLine Rser=50m
SYMBOL res 3824 -2480 R0
SYMATTR InstName R1
SYMATTR Value 0.72
SYMBOL ind2 3248 -1632 M180
WINDOW 0 36 80 Left 2
WINDOW 3 36 40 Left 2
SYMATTR InstName Ltp
SYMATTR Value 785µ
SYMATTR Type ind
SYMATTR Value2 Rser=0.6
SYMATTR SpiceLine Rser=0.6
SYMBOL cap 3520 -1808 R90
WINDOW 0 0 32 VBottom 2
WINDOW 3 32 32 VTop 2
SYMATTR InstName C9
SYMATTR Value 2.2n
SYMBOL ind2 3376 -1632 M180
WINDOW 0 36 80 Left 2
WINDOW 3 36 40 Left 2
SYMATTR InstName Lts
SYMATTR Value 785µ
SYMATTR Type ind
SYMATTR Value2 Rser=0.6
SYMATTR SpiceLine Rser=0.6
SYMBOL res 3552 -1744 R0
SYMATTR InstName R3
SYMATTR Value 10K
SYMBOL diode 3680 -1664 M180
WINDOW 0 24 64 Left 2
WINDOW 3 24 0 Left 2
SYMATTR InstName D1
SYMATTR Value RB068L100
SYMBOL res 3680 -1968 R0
SYMATTR InstName R4
SYMATTR Value 15
SYMBOL pnp 3584 -2032 R270
WINDOW 0 105 31 VRight 2
WINDOW 3 78 9 VRight 2
SYMATTR InstName Q3
SYMATTR Value 2N3906
SYMBOL npn 3840 -2032 M270
WINDOW 0 105 63 VLeft 2
WINDOW 3 77 87 VLeft 2
SYMATTR InstName Q4
SYMATTR Value 2N3904
SYMBOL res 1760 -2448 R0
SYMATTR InstName R9
SYMATTR Value 8.2
SYMBOL cap 1808 -2272 R0
WINDOW 3 41 34 Left 2
WINDOW 39 25 62 Left 2
SYMATTR Value 10n
SYMATTR SpiceLine Rser=3.3K
SYMATTR InstName C10
SYMBOL nmos 1888 -2464 R270
WINDOW 0 67 -8 VRight 2
WINDOW 3 68 54 VRight 2
SYMATTR InstName M4
SYMATTR Value BSC265N10LSF
SYMBOL diode 1680 -2496 R270
WINDOW 0 32 32 VTop 2
WINDOW 3 0 32 VBottom 2
SYMATTR InstName D8
SYMATTR Value MURS120
SYMBOL diode 1568 -2496 R270
WINDOW 0 32 32 VTop 2
WINDOW 3 0 32 VBottom 2
SYMATTR InstName D2
SYMATTR Value MURS120
SYMBOL cap 2064 -2464 R0
SYMATTR InstName C12
SYMATTR Value 10µ
SYMATTR SpiceLine Rser=1
SYMBOL ind 2096 -2496 R270
WINDOW 0 32 56 VTop 2
WINDOW 3 5 56 VBottom 2
SYMATTR InstName L4
SYMATTR Value 10µ
SYMATTR SpiceLine Rser=100m
SYMBOL cap 2208 -2464 R0
SYMATTR InstName C13
SYMATTR Value 2.2µ
SYMATTR SpiceLine Rser=5m
SYMBOL res 2736 -2160 R90
WINDOW 0 0 56 VBottom 2
WINDOW 3 32 56 VTop 2
SYMATTR InstName R5
SYMATTR Value 7.5K
SYMBOL res 2416 -2448 R90
WINDOW 0 0 56 VBottom 2
WINDOW 3 32 56 VTop 2
SYMATTR InstName R6
SYMATTR Value 20
SYMBOL pnp 2592 -2368 M270
WINDOW 0 84 102 VLeft 2
WINDOW 3 84 40 VLeft 2
SYMATTR InstName Q2
SYMATTR Value 2SA1579
SYMBOL cap 2832 -2384 R0
SYMATTR InstName C14
SYMATTR Value 10µ
SYMATTR Value2 ic=0
SYMBOL ind 2704 -2416 R270
WINDOW 0 32 56 VTop 2
WINDOW 3 5 56 VBottom 2
SYMATTR InstName L3
SYMATTR Value 100µ
SYMATTR SpiceLine Rser=5m
SYMBOL diode 2640 -2320 M180
WINDOW 0 24 64 Left 2
WINDOW 3 24 0 Left 2
SYMATTR InstName D3
SYMATTR Value 1N5817
SYMBOL res 1680 -1968 R90
WINDOW 0 0 56 VBottom 2
WINDOW 3 32 56 VTop 2
SYMATTR InstName R8
SYMATTR Value 37.4
SYMBOL cap 1744 -1888 R90
WINDOW 0 0 32 VBottom 2
WINDOW 3 32 32 VTop 2
SYMATTR InstName C11
SYMATTR Value 0.01µ
SYMBOL res 1776 -1728 R90
WINDOW 0 0 56 VBottom 2
WINDOW 3 32 56 VTop 2
SYMATTR InstName R10
SYMATTR Value 51K
SYMBOL voltage 1376 -1472 R0
WINDOW 3 46 50 Left 2
WINDOW 123 30 84 Left 2
SYMATTR Value PWL(0 0 10m 7 160m 7 170m 5 325m 5 330m 8 360m 8 370m 6 400m 6 401m 17 415m 17 416m 6 420m 6 421m 17 425m 17 426m
SYMATTR Value2 6 430m 6 431m 17 435m 17 436m 6 440m 6 441m 17 445m 17 446m 6 450m 6 451m 17 455m 17 456m 6 460m 6 461m 57)
SYMATTR InstName VPSE
SYMBOL res 1680 -1648 R90
WINDOW 0 0 56 VBottom 2
WINDOW 3 32 56 VTop 2
SYMATTR InstName R2
SYMATTR Value 10K
SYMBOL cap 3648 -2320 R90
WINDOW 0 0 32 VBottom 2
WINDOW 3 32 32 VTop 2
WINDOW 39 83 30 VBottom 2
SYMATTR InstName C15
SYMATTR Value 1n
SYMATTR SpiceLine Rser=5.1
SYMBOL cap 1664 -2272 R0
SYMATTR InstName C2
SYMATTR Value 0.1µ
SYMBOL res 1536 -2528 R90
WINDOW 0 0 56 VBottom 2
WINDOW 3 32 56 VTop 2
SYMATTR InstName Rline
SYMATTR Value 6.25
SYMBOL res 1680 -1808 R90
WINDOW 0 0 56 VBottom 2
WINDOW 3 32 56 VTop 2
SYMATTR InstName R11
SYMATTR Value 107K
SYMBOL LT4295 2240 -1824 R0
SYMATTR InstName U2
SYMBOL res 1744 -2048 R90
WINDOW 0 0 56 VBottom 2
WINDOW 3 32 56 VTop 2
SYMATTR InstName R7
SYMATTR Value 1K
TEXT 2632 -2568 Left 2 !.tran  492m
TEXT 3352 -2520 Bottom 2 !K1 Lpri Lsec Laux 0.985
TEXT 3888 -2568 Left 2 ;5V @ 7A
TEXT 3336 -1544 Bottom 2 !K2 Ltp Lts 0.9994
TEXT 1736 -2584 Right 2 ;Diode Bridge
