Version 4
SHEET 1 1948 868
WIRE -80 -160 -368 -160
WIRE 304 -160 -80 -160
WIRE 464 -160 304 -160
WIRE 672 -160 544 -160
WIRE 752 -160 672 -160
WIRE 896 -160 816 -160
WIRE 960 -160 896 -160
WIRE 1088 -160 1024 -160
WIRE 1184 -160 1088 -160
WIRE 1280 -160 1184 -160
WIRE 1360 -160 1280 -160
WIRE 1376 -160 1360 -160
WIRE -368 -112 -368 -160
WIRE -80 -112 -80 -160
WIRE 1376 -112 1376 -160
WIRE 304 -96 304 -160
WIRE 1280 -96 1280 -160
WIRE 672 -80 672 -160
WIRE 896 -80 896 -160
WIRE -368 0 -368 -32
WIRE -80 0 -80 -32
WIRE 96 0 -80 0
WIRE 624 0 512 0
WIRE 1280 0 1280 -32
WIRE 1376 0 1376 -32
WIRE -80 32 -80 0
WIRE 672 64 672 16
WIRE 672 64 512 64
WIRE 896 64 896 0
WIRE 1184 112 1184 -160
WIRE -80 128 -80 112
WIRE 96 160 80 160
WIRE 672 160 672 144
WIRE 672 160 512 160
WIRE 672 176 672 160
WIRE -16 272 -48 272
WIRE 96 272 48 272
WIRE 1088 272 1088 -160
WIRE 1088 272 512 272
WIRE -112 384 -144 384
WIRE -16 384 -48 384
WIRE 96 384 64 384
WIRE 1184 384 1184 192
WIRE 1184 384 512 384
WIRE 1184 432 1184 384
WIRE 304 512 304 496
WIRE 176 528 176 496
WIRE 432 528 432 496
WIRE 1184 544 1184 512
WIRE 176 624 176 592
WIRE 304 624 304 592
WIRE 432 624 432 592
FLAG -80 128 0
FLAG 176 624 0
FLAG -144 384 0
FLAG 432 624 0
FLAG 304 624 0
FLAG 672 176 0
FLAG 1184 544 0
FLAG 1280 0 0
FLAG 1376 0 0
FLAG -368 0 0
FLAG 1360 -160 OUT
FLAG -368 -160 IN
FLAG 896 64 0
FLAG -48 272 0
FLAG 80 160 0
SYMBOL ind2 448 -144 R270
WINDOW 0 32 56 VTop 2
WINDOW 3 5 56 VBottom 2
SYMATTR InstName L1
SYMATTR Value 4.7µ
SYMATTR SpiceLine Rser=15m
SYMATTR Type ind
SYMBOL res -96 -128 R0
SYMATTR InstName R1
SYMATTR Value 1Meg
SYMBOL res -96 16 R0
SYMATTR InstName R2
SYMATTR Value 200k
SYMBOL cap 160 528 R0
SYMATTR InstName C3
SYMATTR Value 22n
SYMBOL cap -48 368 R90
WINDOW 0 0 32 VBottom 2
WINDOW 3 32 32 VTop 2
SYMATTR InstName C2
SYMATTR Value 10n
SYMBOL res 80 368 R90
WINDOW 0 0 56 VBottom 2
WINDOW 3 32 56 VTop 2
SYMATTR InstName R4
SYMATTR Value 12k
SYMBOL cap 416 528 R0
WINDOW 0 25 8 Left 2
SYMATTR InstName C4
SYMATTR Value 2.2µ
SYMBOL res 288 496 R0
WINDOW 3 37 89 Left 2
SYMATTR Value 93.1k
SYMATTR InstName R5
SYMBOL nmos 624 -80 R0
SYMATTR InstName M1
SYMATTR Value BSC123N10LS
SYMBOL schottky 960 -144 R270
WINDOW 0 32 32 VTop 2
WINDOW 3 0 32 VBottom 2
SYMATTR InstName D1
SYMATTR Value MBR20100CT
SYMATTR Description Diode
SYMATTR Type diode
SYMBOL res 656 48 R0
SYMATTR Value 3m
SYMATTR InstName R7
SYMBOL res 1168 96 R0
SYMATTR InstName R8
SYMATTR Value 1Meg
SYMBOL res 1168 416 R0
SYMATTR InstName R9
SYMATTR Value 90.9k
SYMBOL cap 1264 -96 R0
WINDOW 3 35 32 Left 2
WINDOW 40 33 63 Left 2
SYMATTR Value 47µ
SYMATTR SpiceLine2 x6
SYMATTR InstName C5
SYMATTR SpiceLine Rser=10m
SYMBOL res 1360 -128 R0
WINDOW 3 37 89 Left 2
SYMATTR Value 3
SYMATTR InstName R10
SYMBOL voltage -368 -128 R0
WINDOW 123 24 138 Left 2
WINDOW 39 24 117 Left 2
SYMATTR Value PWL(10u 0 100u 24)
SYMATTR InstName V1
SYMBOL cap 752 -176 M90
WINDOW 0 0 32 VBottom 2
WINDOW 3 32 32 VTop 2
WINDOW 40 89 32 VBottom 2
SYMATTR InstName C6
SYMATTR Value 10µ
SYMATTR SpiceLine2 x2
SYMATTR SpiceLine Rser=10m
SYMBOL ind2 880 16 M180
WINDOW 0 48 85 Left 2
WINDOW 3 37 51 Left 2
SYMATTR InstName L2
SYMATTR Value 4.7µ
SYMATTR SpiceLine Rser=15m
SYMATTR Type ind
SYMBOL cap 48 256 R90
WINDOW 0 0 32 VBottom 2
WINDOW 3 32 32 VTop 2
SYMATTR InstName C7
SYMATTR Value 0.1µ
SYMBOL LT8358 304 192 R0
SYMATTR InstName U1
TEXT 640 544 Left 2 !.tran 2.5m startup
TEXT 248 664 Left 2 ;(350kHz)
TEXT 720 -224 Left 2 !K1 L1 L2 .99
