Version 4
SHEET 1 1868 804
WIRE -96 -368 -256 -368
WIRE 224 -368 -96 -368
WIRE 544 -368 304 -368
WIRE 640 -368 544 -368
WIRE 800 -368 704 -368
WIRE 928 -368 800 -368
WIRE 1040 -368 928 -368
WIRE -256 -336 -256 -368
WIRE 928 -320 928 -368
WIRE 544 -256 544 -368
WIRE 800 -240 800 -368
WIRE -256 -224 -256 -256
WIRE 928 -224 928 -256
WIRE -96 -176 -96 -368
WIRE 64 -176 -96 -176
WIRE 496 -176 448 -176
WIRE -96 -80 -96 -96
WIRE 64 -80 -96 -80
WIRE 544 -80 544 -160
WIRE 544 -80 448 -80
WIRE 592 -80 544 -80
WIRE 704 -80 672 -80
WIRE -96 16 -96 0
WIRE 64 16 32 16
WIRE 800 16 800 -160
WIRE 800 16 448 16
WIRE 848 16 800 16
WIRE 976 16 928 16
WIRE -208 112 -224 112
WIRE -112 112 -144 112
WIRE -48 112 -112 112
WIRE 32 112 32 16
WIRE 32 112 -48 112
WIRE 64 112 32 112
WIRE 1040 112 1040 -368
WIRE 1040 112 448 112
WIRE -48 208 -48 192
WIRE 64 208 -48 208
WIRE 1040 208 1040 192
WIRE 1040 208 448 208
WIRE 1040 288 1040 208
WIRE -112 304 -112 112
WIRE 64 304 -112 304
WIRE 992 304 448 304
WIRE -96 400 -144 400
WIRE 64 400 -96 400
WIRE 464 400 448 400
WIRE 560 400 544 400
WIRE 1040 432 1040 384
WIRE -96 496 -96 480
WIRE 16 496 -96 496
WIRE 64 496 16 496
WIRE 544 496 448 496
WIRE 656 496 624 496
WIRE 768 496 720 496
WIRE 256 560 256 544
WIRE 1040 576 1040 496
FLAG -256 -224 0
FLAG 560 400 0
FLAG -256 -368 IN
FLAG 256 560 0
FLAG 1040 576 0
FLAG 1040 -368 OUT
FLAG 928 -224 0
FLAG 704 -80 0
FLAG 768 496 0
FLAG 976 16 0
FLAG -96 16 0
FLAG -224 112 0
FLAG 16 496 _Fault
FLAG -208 400 0
SYMBOL voltage -256 -352 R0
WINDOW 123 0 0 Left 0
WINDOW 39 0 0 Left 0
SYMATTR InstName V1
SYMATTR Value 12
SYMBOL res 448 416 R270
WINDOW 0 32 56 VTop 2
WINDOW 3 0 56 VBottom 2
SYMATTR InstName R2
SYMATTR Value 137k
SYMBOL pmos 992 384 M180
WINDOW 0 60 76 Left 2
WINDOW 3 60 22 Left 2
SYMATTR InstName M1
SYMATTR Value Si7113DN
SYMBOL LED 1024 432 R0
WINDOW 123 26 73 Left 2
WINDOW 0 27 -9 Left 2
WINDOW 3 84 42 Left 2
SYMATTR Value2 n=10
SYMATTR InstName D_LED
SYMATTR Value LXHL-BW02
SYMATTR Description Diode
SYMATTR Type diode
SYMBOL nmos 496 -256 R0
WINDOW 3 60 73 Left 2
SYMATTR Value RJK0651DPB
SYMATTR InstName M2
SYMBOL schottky 640 -384 M90
WINDOW 0 0 32 VBottom 2
WINDOW 3 32 32 VTop 2
SYMATTR InstName D1
SYMATTR Value PDS5100
SYMATTR Description Diode
SYMATTR Type diode
SYMBOL ind 208 -352 R270
WINDOW 0 32 56 VTop 2
WINDOW 3 5 56 VBottom 2
SYMATTR InstName L1
SYMATTR Value 47µ
SYMATTR SpiceLine Rser=3m
SYMBOL cap 912 -320 R0
WINDOW 3 34 44 Left 2
SYMATTR Value 4.7µ
SYMATTR InstName C1
SYMATTR SpiceLine Rser=3m
SYMBOL res 576 -64 R270
WINDOW 0 32 56 VTop 2
WINDOW 3 0 56 VBottom 2
SYMATTR InstName Rsen1
SYMATTR Value 15m
SYMBOL res 528 512 R270
WINDOW 0 32 56 VTop 2
WINDOW 3 0 56 VBottom 2
SYMATTR InstName R1
SYMATTR Value 36k
SYMBOL cap 656 512 R270
WINDOW 0 32 32 VTop 2
WINDOW 3 0 32 VBottom 2
SYMATTR InstName C3
SYMATTR Value 1n
SYMBOL res 1024 96 R0
SYMATTR InstName R7
SYMATTR Value 625m
SYMBOL res 784 -256 R0
SYMATTR InstName R3
SYMATTR Value 1Meg
SYMBOL res 832 32 R270
WINDOW 0 32 56 VTop 2
WINDOW 3 0 56 VBottom 2
SYMATTR InstName R4
SYMATTR Value 11.5k
SYMBOL res -112 -192 R0
SYMATTR InstName R5
SYMATTR Value 499k
SYMBOL res -112 -96 R0
SYMATTR InstName R6
SYMATTR Value 130k
SYMBOL cap -144 416 M270
WINDOW 0 32 32 VTop 2
WINDOW 3 0 32 VBottom 2
SYMATTR InstName C2
SYMATTR Value 2.2µ
SYMBOL res -64 96 R0
SYMATTR InstName R8
SYMATTR Value 6.04k
SYMBOL cap -144 96 R90
WINDOW 0 0 32 VBottom 2
WINDOW 3 32 32 VTop 2
SYMATTR InstName C4
SYMATTR Value 1µ
SYMBOL LT8356-1 256 96 R0
SYMATTR InstName U1
SYMBOL res -112 384 R0
SYMATTR InstName R9
SYMATTR Value 100k
TEXT 784 592 Left 2 !.tran 4m startup
