Version 4
SHEET 1 1416 868
WIRE 0 -64 -128 -64
WIRE 128 -64 0 -64
WIRE 176 -64 128 -64
WIRE 288 -64 256 -64
WIRE 432 -64 288 -64
WIRE 608 -64 496 -64
WIRE 720 -64 608 -64
WIRE 848 -64 720 -64
WIRE 608 -48 608 -64
WIRE -128 -32 -128 -64
WIRE 848 -32 848 -64
WIRE 720 -16 720 -64
WIRE 128 0 128 -64
WIRE 288 0 288 -64
WIRE 608 32 608 16
WIRE 0 64 0 -64
WIRE 48 64 0 64
WIRE 384 64 368 64
WIRE 464 64 448 64
WIRE -128 80 -128 48
WIRE 848 80 848 48
WIRE 48 160 16 160
WIRE 720 160 720 64
WIRE 720 160 368 160
WIRE 720 192 720 160
WIRE -48 256 -80 256
WIRE 48 256 32 256
WIRE 416 256 368 256
WIRE 528 256 496 256
WIRE 608 256 592 256
WIRE 720 288 720 272
WIRE -48 352 -80 352
WIRE 48 352 16 352
WIRE 432 352 368 352
WIRE 432 400 432 352
WIRE 208 448 208 416
WIRE 432 496 432 480
FLAG -80 352 0
FLAG -80 256 0
FLAG -128 80 0
FLAG 720 288 0
FLAG 608 32 0
FLAG 848 80 0
FLAG 464 64 0
FLAG -128 -64 IN
FLAG 848 -64 OUT
FLAG 208 448 0
FLAG 608 256 0
FLAG 16 160 0
FLAG 432 496 0
SYMBOL cap 16 336 R90
WINDOW 0 0 32 VBottom 2
WINDOW 3 32 32 VTop 2
SYMATTR InstName C1
SYMATTR Value 10n
SYMBOL res 48 240 R90
WINDOW 0 0 56 VBottom 2
WINDOW 3 32 56 VTop 2
SYMATTR InstName R1
SYMATTR Value 20k
SYMBOL VOLTAGE -128 -48 R0
SYMATTR InstName V1
SYMATTR Value 6
SYMBOL ind2 160 -48 R270
WINDOW 0 32 56 VTop 2
WINDOW 3 5 56 VBottom 2
SYMATTR InstName L1
SYMATTR Value 2.2µ
SYMATTR SpiceLine Rser=19.5m
SYMATTR Type ind
SYMBOL schottky 432 -48 R270
WINDOW 0 32 32 VTop 2
WINDOW 3 -6 35 VBottom 2
SYMATTR InstName D1
SYMATTR Value PMEG3010BEA
SYMATTR Description Diode
SYMATTR Type diode
SYMBOL res 704 176 R0
SYMATTR InstName R5
SYMATTR Value 71.5k
SYMBOL cap 384 80 R270
WINDOW 0 32 32 VTop 2
WINDOW 3 0 32 VBottom 2
SYMATTR InstName C4
SYMATTR Value 1µ
SYMBOL cap 528 272 R270
WINDOW 0 32 32 VTop 2
WINDOW 3 0 32 VBottom 2
SYMATTR InstName C2
SYMATTR Value 1n
SYMBOL res 400 272 R270
WINDOW 0 32 56 VTop 2
WINDOW 3 0 56 VBottom 2
SYMATTR InstName R2
SYMATTR Value 39k
SYMBOL cap 592 -48 R0
WINDOW 123 42 54 Left 2
WINDOW 0 41 3 Left 2
WINDOW 3 37 29 Left 2
SYMATTR Value2 X2
SYMATTR InstName C3
SYMATTR Value 10µ
SYMBOL res 704 -32 R0
SYMATTR InstName R3
SYMATTR Value 1Meg
SYMBOL VOLTAGE 432 384 R0
WINDOW 123 0 0 Left 0
WINDOW 39 0 0 Left 0
SYMATTR InstName V3
SYMATTR Value 5
SYMBOL res 832 -48 R0
SYMATTR InstName R4
SYMATTR Value 240
SYMBOL LT8334 208 208 R0
SYMATTR InstName U2
TEXT 128 520 Left 2 !.tran 10m startup
