Version 4
SHEET 1 880 680
WIRE -256 -160 -416 -160
WIRE -48 -160 -256 -160
WIRE -16 -160 -48 -160
WIRE -416 -112 -416 -160
WIRE -48 -64 -48 -160
WIRE -16 -64 -48 -64
WIRE 320 -64 272 -64
WIRE 528 -64 400 -64
WIRE 704 -64 528 -64
WIRE 816 -64 704 -64
WIRE 528 -32 528 -64
WIRE 816 -16 816 -64
WIRE -416 0 -416 -32
WIRE 704 0 704 -64
WIRE 432 32 272 32
WIRE 432 48 432 32
WIRE 528 48 528 32
WIRE 528 48 432 48
WIRE 528 80 528 48
WIRE 704 112 704 64
WIRE 816 112 816 64
WIRE 304 128 272 128
WIRE 416 128 368 128
WIRE 528 208 528 160
WIRE -128 224 -176 224
WIRE -16 224 -48 224
WIRE -112 320 -176 320
WIRE -16 320 -48 320
WIRE 304 320 272 320
WIRE 432 320 384 320
WIRE 128 432 128 384
WIRE -256 496 -256 -160
WIRE 432 496 432 320
WIRE 432 496 -256 496
FLAG -176 224 0
FLAG 128 432 0
FLAG -416 0 0
FLAG -176 320 0
FLAG 416 128 0
FLAG 528 208 0
FLAG 704 112 0
FLAG 816 112 0
SYMBOL PowerProducts\\LT8642S 128 80 R0
SYMATTR InstName U1
SYMBOL res -32 208 R90
WINDOW 0 0 56 VBottom 2
WINDOW 3 32 56 VTop 2
SYMATTR InstName R1
SYMATTR Value 17.8k
SYMBOL voltage -416 -128 R0
WINDOW 123 0 0 Left 0
WINDOW 39 0 0 Left 0
SYMATTR InstName V1
SYMATTR Value 12
SYMBOL cap -48 304 R90
WINDOW 0 0 32 VBottom 2
WINDOW 3 32 32 VTop 2
SYMATTR InstName C1
SYMATTR Value 1n
SYMBOL res 400 304 R90
WINDOW 0 0 56 VBottom 2
WINDOW 3 32 56 VTop 2
SYMATTR InstName R2
SYMATTR Value 100k
SYMBOL ind 304 -48 R270
WINDOW 0 32 56 VTop 2
WINDOW 3 5 56 VBottom 2
WINDOW 39 -42 61 VTop 2
SYMATTR InstName L1
SYMATTR Value 0.28µ
SYMATTR SpiceLine Rser=5m
SYMBOL cap 512 -32 R0
WINDOW 39 24 80 Left 2
SYMATTR InstName C2
SYMATTR Value 47p
SYMATTR SpiceLine Rpar=100k
SYMBOL cap 368 112 R90
WINDOW 0 0 32 VBottom 2
WINDOW 3 32 32 VTop 2
WINDOW 39 56 32 VTop 2
SYMATTR InstName C4
SYMATTR Value 1n
SYMATTR SpiceLine Rser=11k
SYMBOL res 512 64 R0
SYMATTR InstName R4
SYMATTR Value 100k
SYMBOL res 800 -32 R0
SYMATTR InstName R3
SYMATTR Value 0.1
SYMBOL cap 688 0 R0
WINDOW 39 24 80 Left 2
WINDOW 123 24 104 Left 2
SYMATTR InstName C3
SYMATTR Value 220µ
SYMATTR SpiceLine Rser=6m
SYMATTR Value2 X2
TEXT -450 502 Left 2 !.tran 3m startup
