Version 4
SHEET 1 1672 708
WIRE 320 -128 320 -144
WIRE 80 -96 -112 -96
WIRE 192 -96 80 -96
WIRE -112 -48 -112 -96
WIRE 192 -48 192 -96
WIRE 320 -48 320 -64
WIRE 80 32 80 -96
WIRE 112 32 80 32
WIRE 432 32 400 32
WIRE -112 48 -112 32
WIRE 432 48 432 32
WIRE -32 128 -128 128
WIRE 112 128 48 128
WIRE 432 128 432 112
WIRE 432 128 400 128
WIRE 480 128 432 128
WIRE 592 128 560 128
WIRE 672 128 592 128
WIRE 688 128 672 128
WIRE 784 128 768 128
WIRE 816 128 784 128
WIRE 928 128 896 128
WIRE 1008 128 928 128
WIRE 1072 128 1008 128
WIRE -128 144 -128 128
WIRE 928 144 928 128
WIRE 1072 144 1072 128
WIRE 0 224 -32 224
WIRE 112 224 80 224
WIRE 672 224 672 128
WIRE 672 224 400 224
WIRE -128 240 -128 224
WIRE 928 256 928 224
WIRE 1072 256 1072 224
WIRE 0 320 -32 320
WIRE 112 320 80 320
WIRE 672 320 400 320
WIRE 784 320 784 128
WIRE 784 320 672 320
WIRE 672 336 672 320
WIRE 784 336 784 320
WIRE 672 416 672 400
WIRE 672 416 400 416
WIRE 784 416 672 416
WIRE 192 512 192 496
WIRE 320 512 320 496
FLAG 192 512 0
FLAG 320 512 0
FLAG -32 320 0
FLAG -112 48 0
FLAG 320 -144 0
FLAG 592 192 0
FLAG 928 256 0
FLAG 1008 128 OUT
FLAG -112 -96 IN
FLAG -32 224 0
FLAG 1072 256 0
FLAG -128 240 0
SYMBOL res 96 304 R90
WINDOW 0 0 56 VBottom 2
WINDOW 3 32 56 VTop 2
SYMATTR InstName R1
SYMATTR Value 3.09k
SYMBOL voltage -112 -64 R0
SYMATTR InstName V1
SYMATTR Value 12
SYMBOL cap 304 -64 M180
WINDOW 0 24 56 Left 2
WINDOW 3 24 8 Left 2
SYMATTR InstName C2
SYMATTR Value 1µ
SYMBOL ind 464 144 R270
WINDOW 0 32 56 VTop 2
WINDOW 3 5 56 VBottom 2
SYMATTR InstName L1
SYMATTR Value 1.5µ
SYMATTR SpiceLine Rser=3m
SYMBOL cap 416 48 R0
SYMATTR InstName C3
SYMATTR Value .1µ
SYMBOL polcap 576 128 R0
WINDOW 3 36 32 Left 2
WINDOW 123 40 62 Left 2
WINDOW 0 35 11 Left 2
SYMATTR Value 22µ
SYMATTR Value2 x2
SYMATTR InstName C4
SYMATTR SpiceLine Rser=4m
SYMATTR Description Capacitor
SYMATTR Type cap
SYMBOL res 768 320 R0
SYMATTR InstName R2
SYMATTR Value 2k
SYMBOL cap 656 336 R0
SYMATTR InstName C5
SYMATTR Value 4.7n
SYMBOL res 912 128 R0
SYMATTR InstName Rload
SYMATTR Value 250
SYMBOL res 672 144 R270
WINDOW 0 32 56 VTop 2
WINDOW 3 0 56 VBottom 2
SYMATTR InstName R4
SYMATTR Value 10m
SYMBOL res 800 144 R270
WINDOW 0 32 56 VTop 2
WINDOW 3 0 56 VBottom 2
SYMATTR InstName R3
SYMATTR Value 0.3
SYMBOL res -16 240 R270
WINDOW 0 32 56 VTop 2
WINDOW 3 0 56 VBottom 2
SYMATTR InstName R5
SYMATTR Value 9.09k
SYMBOL current 1072 144 R0
WINDOW 123 0 0 Left 0
WINDOW 39 0 0 Left 0
SYMATTR InstName I1
SYMATTR Value PWL(1.4m 0 1.401m 1 1.6m 1 1.601m 0)
SYMBOL res 64 112 R90
WINDOW 0 0 56 VBottom 2
WINDOW 3 32 56 VTop 2
SYMATTR InstName R6
SYMATTR Value 100k
SYMBOL voltage -128 128 R0
WINDOW 123 0 0 Left 0
WINDOW 39 0 0 Left 0
SYMATTR InstName V2
SYMATTR Value 3
SYMBOL LT8698S 256 128 R0
SYMATTR InstName U1
SYMATTR Description 5V 3A Output, 42V Input USB Charger with Cable Drop Compensation and Dataline Protection
TEXT 720 488 Left 2 !.tran 2m startup
TEXT 0 568 Left 2 ;STATUS, SEL1-3,  LD+,  LD-, HD+, HD- , CLAMP pins are not modeled\nCharger profiles: CCP (1.0A/2.0A/2.1A/2.4A/3A), SDP (500mA), BC1.2 DCP/CDP (1.5A)
