Version 4
SHEET 1 1044 680
WIRE 96 -64 -32 -64
WIRE 128 -64 96 -64
WIRE -32 -48 -32 -64
WIRE 96 -32 96 -64
WIRE 128 -32 96 -32
WIRE 96 32 96 -32
WIRE 128 32 96 32
WIRE 448 32 416 32
WIRE 576 32 528 32
WIRE 656 32 576 32
WIRE 816 32 656 32
WIRE 944 32 816 32
WIRE -32 48 -32 32
WIRE 576 48 576 32
WIRE 656 48 656 32
WIRE 816 48 816 32
WIRE 944 48 944 32
WIRE 128 128 80 128
WIRE 576 128 576 112
WIRE 576 128 416 128
WIRE 656 128 576 128
WIRE 656 144 656 128
WIRE 816 144 816 112
WIRE 944 144 944 128
WIRE 448 224 416 224
WIRE 560 224 528 224
WIRE 560 240 560 224
WIRE 656 240 656 224
WIRE 32 320 0 320
WIRE 128 320 112 320
WIRE 560 320 560 304
WIRE 32 416 0 416
WIRE 128 416 96 416
WIRE 272 496 272 480
FLAG -32 48 0
FLAG 0 320 0
FLAG 0 416 0
FLAG 272 496 0
FLAG 656 240 0
FLAG 816 144 0
FLAG 944 144 0
FLAG 560 320 0
FLAG 944 32 OUT
FLAG -32 -64 IN
FLAG 80 128 0
SYMBOL voltage -32 -64 R0
WINDOW 123 0 0 Left 0
WINDOW 39 0 0 Left 0
SYMATTR InstName V1
SYMATTR Value 5
SYMBOL res 128 304 R90
WINDOW 0 0 56 VBottom 2
WINDOW 3 32 56 VTop 2
SYMATTR InstName R1
SYMATTR Value 17.8k
SYMBOL cap 96 400 R90
WINDOW 0 0 32 VBottom 2
WINDOW 3 32 32 VTop 2
SYMATTR InstName C1
SYMATTR Value 1n
SYMBOL ind 432 48 R270
WINDOW 0 32 56 VTop 2
WINDOW 3 5 56 VBottom 2
SYMATTR InstName L1
SYMATTR Value 150n
SYMATTR SpiceLine Rser=6m
SYMBOL res 640 128 R0
SYMATTR InstName R2
SYMATTR Value 100k
SYMBOL cap 800 48 R0
WINDOW 123 24 54 Left 2
WINDOW 3 39 31 Left 2
SYMATTR Value2 x2
SYMATTR Value 330µ
SYMATTR InstName C2
SYMATTR SpiceLine Rser=4m
SYMBOL res 928 32 R0
SYMATTR InstName Rload
SYMATTR Value 0.08
SYMBOL res 640 32 R0
SYMATTR InstName R3
SYMATTR Value 100k
SYMBOL cap 560 48 R0
SYMATTR InstName C4
SYMATTR Value 47p
SYMBOL cap 544 240 R0
SYMATTR InstName C3
SYMATTR Value 1n
SYMBOL res 544 208 R90
WINDOW 0 0 56 VBottom 2
WINDOW 3 32 56 VTop 2
SYMATTR InstName R4
SYMATTR Value 11k
SYMBOL LT8644S 272 176 R0
SYMATTR InstName U2
TEXT 488 424 Left 2 !.tran 1m startup
