Version 4
SHEET 1 2732 1188
WIRE 160 -512 160 -528
WIRE 160 -432 160 -448
WIRE 160 -432 -144 -432
WIRE 448 -432 160 -432
WIRE -240 -416 -480 -416
WIRE 64 -416 -240 -416
WIRE 624 -416 64 -416
WIRE -480 -400 -480 -416
WIRE -144 -400 -144 -432
WIRE 448 -400 448 -432
WIRE -240 -384 -240 -416
WIRE 624 -384 624 -416
WIRE 64 -368 64 -416
WIRE 160 -368 160 -432
WIRE 256 -368 256 -384
WIRE 352 -368 352 -384
WIRE -480 -304 -480 -320
WIRE 0 -304 -192 -304
WIRE 576 -304 416 -304
WIRE -240 -208 -240 -288
WIRE -224 -208 -240 -208
WIRE -144 -208 -144 -336
WIRE -144 -208 -160 -208
WIRE 0 -208 -144 -208
WIRE 448 -208 448 -336
WIRE 448 -208 416 -208
WIRE 464 -208 448 -208
WIRE 624 -208 624 -288
WIRE 624 -208 528 -208
WIRE -528 -112 -624 -112
WIRE -432 -112 -528 -112
WIRE -416 -112 -432 -112
WIRE -304 -112 -336 -112
WIRE -240 -112 -240 -208
WIRE -240 -112 -304 -112
WIRE 0 -112 -240 -112
WIRE 624 -112 624 -208
WIRE 624 -112 416 -112
WIRE 704 -112 624 -112
WIRE 736 -112 704 -112
WIRE 832 -112 816 -112
WIRE 896 -112 832 -112
WIRE 1008 -112 896 -112
WIRE -624 -96 -624 -112
WIRE -528 -96 -528 -112
WIRE -240 -96 -240 -112
WIRE 624 -96 624 -112
WIRE 896 -96 896 -112
WIRE 1008 -96 1008 -112
WIRE 0 -16 -192 -16
WIRE 576 -16 416 -16
WIRE -624 0 -624 -16
WIRE -528 0 -528 -32
WIRE 896 0 896 -32
WIRE 1008 0 1008 -16
WIRE -240 16 -240 0
WIRE 624 16 624 0
WIRE -304 80 -304 -112
WIRE -224 80 -304 80
WIRE -80 80 -144 80
WIRE 0 80 -80 80
WIRE 448 80 416 80
WIRE 544 80 448 80
WIRE 704 80 704 -112
WIRE 704 80 624 80
WIRE -80 96 -80 80
WIRE 448 96 448 80
WIRE -432 176 -432 -112
WIRE -80 176 -80 160
WIRE -80 176 -432 176
WIRE 0 176 -80 176
WIRE 448 176 448 160
WIRE 448 176 416 176
WIRE 832 176 832 -112
WIRE 832 176 448 176
WIRE -432 272 -432 176
WIRE 0 272 -432 272
WIRE 832 272 832 176
WIRE 832 272 416 272
WIRE 448 368 416 368
WIRE -208 464 -272 464
WIRE -96 464 -128 464
WIRE 0 464 -96 464
WIRE 464 464 416 464
WIRE 528 464 464 464
WIRE 656 464 608 464
WIRE -272 480 -272 464
WIRE -96 480 -96 464
WIRE 464 480 464 464
WIRE 656 480 656 464
WIRE -272 560 -272 544
WIRE -96 560 -96 544
WIRE 0 560 -32 560
WIRE 464 560 464 544
WIRE 656 560 656 544
WIRE -400 608 -416 608
WIRE -272 608 -320 608
WIRE -32 608 -32 560
WIRE -32 608 -272 608
WIRE -272 640 -272 608
WIRE 0 656 -96 656
WIRE 528 656 416 656
WIRE -272 736 -272 720
WIRE 64 736 64 720
WIRE 64 736 -272 736
WIRE 656 736 64 736
WIRE -96 752 -96 656
WIRE 64 752 64 736
WIRE 256 752 256 720
WIRE 528 752 528 656
WIRE 656 768 656 736
WIRE 64 848 64 816
WIRE -96 880 -96 832
WIRE 160 880 160 720
WIRE 160 880 -96 880
WIRE 256 880 256 832
WIRE 256 880 160 880
WIRE 528 880 528 832
WIRE 528 880 256 880
WIRE 352 896 352 720
WIRE 656 896 656 848
WIRE 656 896 352 896
WIRE 160 912 160 880
WIRE 656 912 656 896
WIRE 160 992 160 976
WIRE 656 1008 656 992
FLAG 256 -384 0
FLAG 352 -384 0
FLAG 160 -528 0
FLAG -240 16 0
FLAG -528 0 0
FLAG -624 0 0
FLAG -624 -112 OUT1
FLAG -480 -416 IN
FLAG -480 -304 0
FLAG -416 608 0
FLAG 656 1008 0
FLAG 624 16 0
FLAG 896 0 0
FLAG 1008 0 0
FLAG 1008 -112 OUT0
FLAG 448 368 0
FLAG 64 848 0
FLAG 160 992 0
FLAG 656 560 0
FLAG 464 560 0
FLAG -272 560 0
FLAG -96 560 0
SYMBOL voltage -480 -416 R0
SYMATTR InstName V1
SYMATTR Value 12
SYMBOL cap 144 -512 R0
SYMATTR InstName C1
SYMATTR Value 1µ
SYMBOL nmos -192 -384 M0
SYMATTR InstName Q1
SYMATTR Value RJK0305DPB
SYMBOL nmos -192 -96 M0
WINDOW 0 0 2 Right 2
WINDOW 3 25 107 Right 2
SYMATTR InstName Q2
SYMATTR Value RJK0301DPB
SYMBOL ind 720 -96 R270
WINDOW 0 32 56 VTop 2
WINDOW 3 5 56 VBottom 2
SYMATTR InstName L1
SYMATTR Value .56µ
SYMATTR SpiceLine Rser=1.61m
SYMBOL cap -160 -224 R90
WINDOW 0 0 32 VBottom 2
WINDOW 3 32 32 VTop 2
SYMATTR InstName C2
SYMATTR Value .1µ
SYMBOL schottky -160 -400 R0
SYMATTR Value CMDSH2-3
SYMATTR InstName D1
SYMATTR Description Diode
SYMATTR Type diode
SYMBOL cap 432 96 R0
SYMATTR InstName C3
SYMATTR Value .22µ
SYMBOL res 640 64 R90
WINDOW 0 0 56 VBottom 2
WINDOW 3 32 56 VTop 2
SYMATTR InstName R1
SYMATTR Value 1.58K
SYMBOL cap -544 -96 R0
SYMATTR InstName C5
SYMATTR Value 530µ
SYMATTR SpiceLine Rser=5m
SYMBOL res -640 -112 R0
SYMATTR InstName R2
SYMATTR Value .165
SYMBOL res -288 624 R0
SYMATTR InstName R3
SYMATTR Value 10K
SYMBOL res -304 592 R90
WINDOW 0 0 56 VBottom 2
WINDOW 3 32 56 VTop 2
SYMATTR InstName R4
SYMATTR Value 15.8k
SYMBOL res -112 736 R0
SYMATTR InstName R5
SYMATTR Value 10K
SYMBOL res 240 736 R0
SYMATTR InstName R6
SYMATTR Value 4.99K
SYMBOL res 672 864 R180
WINDOW 0 -43 68 Left 2
WINDOW 3 -73 35 Left 2
SYMATTR InstName R9
SYMATTR Value 30.1K
SYMBOL res 672 1008 R180
WINDOW 0 -48 73 Left 2
WINDOW 3 -72 38 Left 2
SYMATTR InstName R10
SYMATTR Value 3.57K
SYMBOL nmos 576 -384 R0
SYMATTR InstName Q3
SYMATTR Value RJK0305DPB
SYMBOL nmos 576 -96 R0
WINDOW 0 -3 20 Right 2
WINDOW 3 28 103 Right 2
SYMATTR InstName Q4
SYMATTR Value RJK0301DPB
SYMBOL ind -320 -96 M270
WINDOW 0 32 56 VTop 2
WINDOW 3 5 56 VBottom 2
SYMATTR InstName L2
SYMATTR Value 1µ
SYMATTR SpiceLine Rser=2.3m
SYMBOL cap 464 -224 M90
WINDOW 0 0 32 VBottom 2
WINDOW 3 32 32 VTop 2
SYMATTR InstName C7
SYMATTR Value .1µ
SYMBOL schottky 432 -400 R0
SYMATTR Value CMDSH2-3
SYMATTR InstName D2
SYMATTR Description Diode
SYMATTR Type diode
SYMBOL cap -96 96 R0
SYMATTR InstName C8
SYMATTR Value .22µ
SYMBOL res -240 96 R270
WINDOW 0 32 56 VTop 2
WINDOW 3 0 56 VBottom 2
SYMATTR InstName R11
SYMATTR Value 2K
SYMBOL cap 880 -96 R0
SYMATTR InstName C9
SYMATTR Value 530µ
SYMATTR SpiceLine Rser=5m
SYMBOL res 992 -112 R0
SYMATTR InstName R12
SYMATTR Value .025
SYMBOL res 544 848 R180
WINDOW 0 -5 74 Right 2
WINDOW 3 -2 29 Right 2
SYMATTR InstName R13
SYMATTR Value 10K
SYMBOL cap 48 752 R0
SYMATTR InstName C10
SYMATTR Value 1µ
SYMBOL cap 144 912 R0
SYMATTR InstName C11
SYMATTR Value 1µ
SYMBOL PowerProducts\\LTC3887 208 176 R0
WINDOW 39 -31 -820 Center 2
WINDOW 40 -28 -768 Center 2
SYMATTR SpiceLine VIN_ON=5.5 VIN_OFF=5 Vout_0=0.5 Vout_1=2.5 Ilim0_range=1 Ilim1_range=1 OC_limit0=1 OC_limit1=1 Mode_ll=2 Fault_response=0 Retry_delay=.1m
SYMATTR InstName U1
SYMBOL cap 640 480 R0
SYMATTR InstName C12
SYMATTR Value 4.7n
SYMBOL res 512 480 R270
WINDOW 0 32 56 VTop 2
WINDOW 3 0 56 VBottom 2
SYMATTR InstName R7
SYMATTR Value 4.99k
SYMBOL cap 448 480 R0
SYMATTR InstName C13
SYMATTR Value 220p
SYMBOL cap -288 480 R0
SYMATTR InstName C6
SYMATTR Value 2.2n
SYMBOL res -112 448 R90
WINDOW 0 0 56 VBottom 2
WINDOW 3 32 56 VTop 2
SYMATTR InstName R8
SYMATTR Value 6.04k
SYMBOL cap -112 480 R0
SYMATTR InstName C14
SYMATTR Value 220p
TEXT 704 688 Left 2 !.tran  1.2m startup
TEXT 1152 -408 Left 2 ;NOTES FOR SIMULATION\n \nPlease read the following notes carefully since the model behaves differently from the user \ninterface for the LTC3887.\n \n(1) PMBus communication and memory address related functions and pins are not modeled.  \n(2) Changes to parameter values while the simulation is running will not take effect unless the\nsimulation is stopped and restarted. This is different from the way the part operates which will\nrespond to the changes while running.  \n(3) Share_clk is not modeled. The default time reference of LTspice is used as the common time \nbase for all time-related parameters.\n \n \nDESCRIPTION OF PARAMETERS\n \nThe following parameters can be defined by right-clicking on the LTC3887 symbol.\nThe nomenclature used here differs from the one in the data sheet. If any value of these parameters is\nset beyond the scope described in the data sheet, the resulting simulation will not be meaningful.\n \nVIN_ON & VIN_OFF -- in volts, set the unit start/stop input voltages.\nVout_0 & Vout_1 -- in volt, set output voltages respectively.\nIlim0_range & Ilim1_range -- set maximum sensed peak current range,\n                                          with value 0 for low 50mV, and 1 for high 75mV.\nOC_limit0 & OC_limit1 -- set ratio of peak current limit to the maximum value defined by Ilimit_range.\n                     It must be one of values: 0.5, 0.572, 0.642, 0.714, 0.786, 0.858, 0.928, 1.\nMode_II -- sets light load operation mode: 0 for discontinuous, 2 for forced continuous.\nFault_response -- sets the response mode of the LTC3887 to occuring faults:\n                            0 for ignore, 1 for latch-up, 2 for hiccup after Retry_delay time.\nRetry_delay -- in sec, sets the timer before the LTC3887 turns on after a fault.\n \nFreq -- in Hz, sets switching frequency as one of values of 250k, 350k, 425k, 500k, 575k, 650k, 750k, 1000k.\n           FREQ_CFG pin needs to float or short to VDD25.\nPHs_0 & PHs_1 -- in degree,  set phase angle related to SYNC signal. \n                Certain combinations are restricted as in data sheet.\n                FREQ_CFG pin needs to float or short to VDD25.\nTon0_delay & Ton0_rise; Ton1_delay & Ton1_rise -- in sec, set delay and soft-start timers for \n                channel0 and channel1. Initialization time is not modeled.\nToff0_delay & Toff0_fall; Toff1_delay & Toff1_fall -- in sec, set delay and soft-off timers for \n                channel0 and channel1.\nVout0_range & Vout1_range -- set maximum output range, with value 0 for 5.5V, value 1 for 2.75V.
