Version 4
SHEET 1 2332 692
WIRE 512 -224 64 -224
WIRE 592 -224 512 -224
WIRE 768 -224 592 -224
WIRE 1040 -224 768 -224
WIRE 1152 -224 1040 -224
WIRE 1248 -224 1152 -224
WIRE 1360 -224 1248 -224
WIRE 1472 -224 1360 -224
WIRE 1600 -224 1568 -224
WIRE 1824 -224 1600 -224
WIRE 768 -208 768 -224
WIRE 1824 -192 1824 -224
WIRE 1520 -176 1488 -176
WIRE -480 -144 -608 -144
WIRE -352 -144 -480 -144
WIRE -128 -144 -352 -144
WIRE 176 -144 -128 -144
WIRE 768 -128 768 -144
WIRE -480 -112 -480 -144
WIRE -352 -112 -352 -144
WIRE -128 -112 -128 -144
WIRE 1360 -112 1360 -224
WIRE 1392 -112 1360 -112
WIRE 1520 -112 1520 -176
WIRE 1520 -112 1472 -112
WIRE 256 -96 256 -176
WIRE 336 -96 336 -176
WIRE 1040 -96 1040 -224
WIRE 1248 -96 1248 -224
WIRE 1824 -80 1824 -112
WIRE 176 -64 176 -144
WIRE 256 -64 256 -96
WIRE 336 -64 336 -96
WIRE 512 -64 512 -224
WIRE 592 -64 592 -224
WIRE 1152 -64 1152 -224
WIRE -480 -32 -480 -48
WIRE -480 0 -512 0
WIRE -352 0 -352 -32
WIRE -352 0 -416 0
WIRE -256 16 -288 16
WIRE -128 16 -128 -32
WIRE -128 16 -176 16
WIRE -48 16 -128 16
WIRE 96 16 -48 16
WIRE 704 16 672 16
WIRE 1040 16 1040 -16
WIRE 1040 16 704 16
WIRE -608 64 -608 -144
WIRE 1360 64 1360 -112
WIRE 1680 64 1360 64
WIRE 1808 64 1680 64
WIRE 1680 80 1680 64
WIRE 1808 80 1808 64
WIRE -480 96 -512 96
WIRE -352 96 -352 0
WIRE -352 96 -400 96
WIRE -48 96 -352 96
WIRE 96 96 -48 96
WIRE 720 96 672 96
WIRE 896 96 720 96
WIRE 896 128 896 96
WIRE 896 128 880 128
WIRE 912 128 896 128
WIRE 1600 128 1600 -224
WIRE 1600 128 992 128
WIRE -608 176 -608 128
WIRE -48 176 -608 176
WIRE 96 176 -48 176
WIRE 736 176 672 176
WIRE 1520 176 1520 -112
WIRE 1520 176 736 176
WIRE 1680 176 1680 160
WIRE 1808 176 1808 160
WIRE -608 208 -608 176
WIRE 64 256 64 -224
WIRE 96 256 64 256
WIRE 1152 256 1152 16
WIRE 1152 256 672 256
WIRE 1824 256 1152 256
WIRE -608 320 -608 272
WIRE 64 336 64 256
WIRE 96 336 64 336
WIRE 1248 336 1248 -16
WIRE 1248 336 672 336
WIRE 1824 336 1248 336
WIRE 272 464 272 416
WIRE 384 464 384 416
WIRE 496 464 496 416
WIRE 496 496 496 464
WIRE 496 608 496 576
FLAG -288 16 0
FLAG -480 -32 0
FLAG -512 96 0
FLAG -608 320 0
FLAG 768 -128 0
FLAG 496 608 0
FLAG 272 464 0
FLAG 384 464 0
FLAG -608 -144 Vcap
FLAG 1040 96 0
FLAG 1824 256 CAPOK
FLAG 1824 336 _CMPOUT
FLAG 800 128 0
FLAG 720 96 DIR
FLAG 736 176 _CHRG
FLAG -512 0 0
FLAG 1824 -80 0
FLAG 1808 176 0
FLAG -48 16 FBVcap
FLAG 496 464 PROG
FLAG 704 16 FB
FLAG -48 96 CMPIN
FLAG -48 176 Vmid
FLAG 256 -96 SW1
FLAG 336 -96 SW2
FLAG 768 -224 Vsys
FLAG 1808 64 Vsys
FLAG 1824 -224 Vmain
FLAG 1680 176 0
SYMBOL cap -496 -112 R0
SYMATTR InstName Ccap
SYMATTR Value 1µ
SYMBOL res -144 -128 R0
SYMATTR InstName R1
SYMATTR Value 1910k
SYMBOL res -272 32 R270
WINDOW 0 32 56 VTop 2
WINDOW 3 0 56 VBottom 2
SYMATTR InstName R2
SYMATTR Value 681k
SYMBOL res -368 -128 R0
SYMATTR InstName R3
SYMATTR Value 1910k
SYMBOL res -496 112 R270
WINDOW 0 32 56 VTop 2
WINDOW 3 0 56 VBottom 2
SYMATTR InstName R4
SYMATTR Value 715k
SYMBOL cap -624 64 R0
WINDOW 123 24 84 Left 2
SYMATTR Value2 ic=0
SYMATTR InstName C1
SYMATTR Value 1m
SYMBOL cap -624 208 R0
WINDOW 123 24 84 Left 2
SYMATTR Value2 ic=0
SYMATTR InstName C2
SYMATTR Value 1m
SYMBOL ind 352 -160 M270
WINDOW 0 32 56 VTop 2
WINDOW 3 5 56 VBottom 2
SYMATTR InstName L1
SYMATTR Value 2.2µ
SYMBOL cap 752 -208 R0
WINDOW 3 35 36 Left 2
WINDOW 39 37 62 Left 2
SYMATTR Value 47µ
SYMATTR InstName Csys
SYMBOL res 480 592 M180
WINDOW 0 36 76 Left 2
WINDOW 3 36 40 Left 2
SYMATTR InstName Rprog
SYMATTR Value 6.04k
SYMBOL res 1024 0 R0
SYMATTR InstName R6
SYMATTR Value 215k
SYMBOL res 1024 -112 R0
SYMATTR InstName R5
SYMATTR Value 931k
SYMBOL pmos 1568 -176 M270
WINDOW 0 -15 30 VLeft 2
WINDOW 3 78 106 VLeft 2
SYMATTR InstName M1
SYMATTR Value IRLML6402
SYMBOL res 1488 -128 R90
WINDOW 0 0 56 VBottom 2
WINDOW 3 32 56 VTop 2
SYMATTR InstName Roff
SYMATTR Value 3.3k
SYMBOL res 1136 -80 R0
SYMATTR InstName R9
SYMATTR Value 1Meg
SYMBOL res 1232 -112 R0
SYMATTR InstName R10
SYMATTR Value 1Meg
SYMBOL res 1008 112 R90
WINDOW 0 0 56 VBottom 2
WINDOW 3 32 56 VTop 2
SYMATTR InstName R7
SYMATTR Value 9.31k
SYMBOL res 896 112 R90
WINDOW 0 0 56 VBottom 2
WINDOW 3 32 56 VTop 2
SYMATTR InstName R8
SYMATTR Value 4.53k
SYMBOL cap -416 -16 R90
WINDOW 123 32 -38 VRight 2
WINDOW 0 -26 -13 VRight 2
WINDOW 3 54 2 VRight 2
SYMATTR Value2 ic=0
SYMATTR InstName Ccmpin
SYMATTR Value 0.1n
SYMBOL voltage 1824 -208 R0
WINDOW 123 0 0 Left 0
WINDOW 39 0 0 Left 0
SYMATTR InstName V1
SYMATTR Value 3.6
SYMBOL current 1808 80 R0
WINDOW 123 0 0 Left 0
WINDOW 39 24 108 Left 2
SYMATTR SpiceLine load
SYMATTR InstName I1
SYMATTR Value 1.5
SYMBOL LTC3110 384 176 R0
SYMATTR InstName U1
SYMBOL res 1664 64 R0
SYMATTR InstName R11
SYMATTR Value 10k
TEXT 88 624 Left 2 !.tran 10m startup
