Version 4
SHEET 1 880 680
WIRE -160 -32 -176 -32
WIRE -80 -32 -160 -32
WIRE 208 -32 -80 -32
WIRE -176 -16 -176 -32
WIRE 208 -16 208 -32
WIRE -80 0 -80 -32
WIRE 32 32 -16 32
WIRE 416 32 384 32
WIRE 528 32 496 32
WIRE 576 32 528 32
WIRE 656 32 576 32
WIRE 672 32 656 32
WIRE 576 48 576 32
WIRE 672 48 672 32
WIRE -176 96 -176 64
WIRE -80 96 -80 64
WIRE -16 96 -16 32
WIRE 32 96 -16 96
WIRE 528 96 528 32
WIRE 528 96 384 96
WIRE 576 144 576 112
WIRE 672 144 672 128
WIRE 32 160 16 160
WIRE 32 224 16 224
WIRE -16 288 -16 96
WIRE 32 288 -16 288
WIRE 416 288 384 288
WIRE 32 352 16 352
WIRE 416 352 416 288
WIRE 416 352 384 352
WIRE 208 416 208 400
WIRE -16 448 -16 288
WIRE 416 448 416 352
WIRE 416 448 -16 448
FLAG 208 416 0
FLAG -176 96 0
FLAG -80 96 0
FLAG 576 144 0
FLAG 672 144 0
FLAG -160 -32 IN
FLAG 656 32 OUT
FLAG 16 160 0
FLAG 16 224 0
FLAG 16 352 0
SYMBOL voltage -176 -32 R0
WINDOW 123 0 0 Left 0
WINDOW 39 0 0 Left 0
SYMATTR InstName V1
SYMATTR Value 7.2
SYMBOL cap -96 0 R0
SYMATTR InstName C1
SYMATTR Value 0.1µ
SYMBOL ind 400 48 R270
WINDOW 0 32 56 VTop 2
WINDOW 3 5 56 VBottom 2
SYMATTR InstName L1
SYMATTR Value 33µ
SYMATTR SpiceLine Rser=0.2
SYMBOL cap 560 48 R0
SYMATTR InstName C2
SYMATTR Value 100µ
SYMBOL res 656 32 R0
SYMATTR InstName RLoad
SYMATTR Value 10
SYMBOL LTC3336 208 192 R0
SYMATTR InstName U1
TEXT 496 440 Left 2 !.tran 5m startup
