Version 4
SHEET 1 1744 792
WIRE 400 0 48 0
WIRE -240 32 -256 32
WIRE -160 32 -240 32
WIRE -48 32 -160 32
WIRE 160 32 -48 32
WIRE -256 48 -256 32
WIRE -160 48 -160 32
WIRE -48 48 -48 32
WIRE 160 80 160 32
WIRE 288 80 288 64
WIRE -256 144 -256 128
WIRE -160 144 -160 128
WIRE -48 144 -48 112
WIRE 48 160 48 0
WIRE 96 160 48 160
WIRE 400 160 400 0
WIRE 400 160 352 160
WIRE 96 256 80 256
WIRE 400 256 400 160
WIRE 400 256 352 256
WIRE 400 272 400 256
WIRE 48 368 48 160
WIRE 96 368 48 368
WIRE 400 368 400 336
WIRE 400 368 352 368
WIRE 48 464 48 368
WIRE 96 464 48 464
WIRE 368 464 352 464
WIRE 464 464 448 464
WIRE 224 560 224 544
WIRE 48 576 48 464
WIRE 144 576 144 544
WIRE 144 576 48 576
WIRE 304 576 304 544
WIRE 416 576 304 576
WIRE 448 576 416 576
WIRE 304 592 304 576
WIRE 448 592 448 576
WIRE 304 672 304 656
WIRE 448 672 448 656
FLAG 224 560 0
FLAG 304 672 0
FLAG 448 672 0
FLAG -160 144 0
FLAG -48 144 0
FLAG -256 144 0
FLAG 288 64 0
FLAG 464 464 0
FLAG -240 32 IN
FLAG 416 576 OUT
FLAG 80 256 0
SYMBOL cap 288 592 R0
SYMATTR InstName C1
SYMATTR Value 10µ
SYMATTR SpiceLine Rser=5m
SYMBOL cap 432 592 R0
WINDOW 0 46 0 Left 2
WINDOW 3 51 33 Left 2
WINDOW 123 47 56 Left 2
SYMATTR InstName BAT
SYMATTR Value 0.1
SYMATTR Value2 ic=2.7
SYMBOL cap -64 48 R0
SYMATTR Value2 ic=0
SYMATTR InstName C2
SYMATTR Value 33n
SYMBOL ind -176 32 R0
SYMATTR SpiceLine Rser=500m
SYMATTR SpiceLine2 ic=0
SYMATTR InstName L1
SYMATTR Value 13µ
SYMBOL current -256 128 M180
WINDOW 0 24 80 Left 2
WINDOW 3 7 -69 Left 2
WINDOW 123 0 0 Left 0
WINDOW 39 0 0 Left 0
SYMATTR InstName I1
SYMATTR Value SINE(0 280m 244k 0)
SYMBOL res 352 480 R270
WINDOW 0 32 56 VTop 2
WINDOW 3 0 56 VBottom 2
SYMATTR InstName NTC
SYMATTR Value 100k
SYMBOL LED 384 272 R0
SYMATTR InstName D2
SYMATTR Value NSCW100
SYMBOL LTC4124 224 288 R0
SYMATTR InstName U2
TEXT 160 712 Left 2 !.tran 10 startup
