Version 4
SHEET 1 1224 1848
WIRE 80 -176 80 -192
WIRE 144 -176 80 -176
WIRE 80 -112 80 -176
WIRE 144 -112 144 -176
WIRE 208 -112 208 -192
WIRE 272 -112 272 -176
WIRE 336 -112 336 -176
WIRE 416 -112 416 -160
WIRE -112 0 -224 0
WIRE -16 0 -112 0
WIRE 576 32 480 32
WIRE 640 32 576 32
WIRE 832 32 640 32
WIRE -224 96 -224 0
WIRE -112 112 -112 0
WIRE 832 112 832 32
WIRE 576 128 576 32
WIRE 576 128 480 128
WIRE 752 224 720 224
WIRE 832 224 832 192
WIRE 832 224 816 224
WIRE -224 240 -224 176
WIRE -112 240 -112 176
WIRE 832 256 832 224
WIRE 576 272 480 272
WIRE 576 384 576 272
WIRE 576 384 480 384
WIRE 656 384 576 384
WIRE 832 384 832 336
WIRE 832 384 656 384
WIRE -640 464 -672 464
WIRE -624 464 -640 464
WIRE -480 464 -512 464
WIRE -464 464 -480 464
WIRE 528 496 480 496
WIRE -672 512 -672 464
WIRE -512 512 -512 464
WIRE 80 624 80 560
WIRE 160 624 160 560
WIRE 160 624 80 624
WIRE 240 624 240 560
WIRE 240 624 160 624
WIRE 320 624 320 560
WIRE 400 624 400 560
WIRE 400 624 320 624
WIRE -672 640 -672 592
WIRE -512 640 -512 592
WIRE 80 656 80 624
WIRE 320 656 320 624
WIRE 320 672 320 656
WIRE -656 736 -672 736
WIRE -624 736 -656 736
WIRE -480 736 -512 736
WIRE -464 736 -480 736
WIRE -672 784 -672 736
WIRE -512 784 -512 736
WIRE 80 816 80 800
WIRE 144 816 80 816
WIRE 80 880 80 816
WIRE 144 880 144 816
WIRE 208 880 208 800
WIRE 272 880 272 816
WIRE 336 880 336 816
WIRE 416 880 416 832
WIRE -672 912 -672 864
WIRE -512 912 -512 864
WIRE -640 1008 -672 1008
WIRE -528 1008 -640 1008
WIRE -416 1008 -480 1008
WIRE 640 1024 480 1024
WIRE -480 1040 -480 1008
WIRE -672 1056 -672 1008
WIRE -528 1056 -528 1008
WIRE -480 1168 -480 1120
WIRE -672 1184 -672 1136
WIRE 656 1376 480 1376
WIRE -112 1472 -224 1472
WIRE -16 1472 -112 1472
WIRE 528 1488 480 1488
WIRE -224 1584 -224 1472
WIRE -112 1584 -112 1472
WIRE 160 1616 160 1552
WIRE 240 1616 240 1552
WIRE 240 1616 160 1616
WIRE 320 1616 320 1552
WIRE 400 1616 400 1552
WIRE 400 1616 320 1616
WIRE 80 1648 80 1552
WIRE 320 1648 320 1616
WIRE 320 1664 320 1648
WIRE -224 1712 -224 1664
WIRE -112 1712 -112 1648
WIRE 240 1712 240 1616
FLAG -224 240 0
FLAG 80 656 0
FLAG 80 -192 3.3V
FLAG 320 656 3.3V
FLAG 336 -176 CM
FLAG -112 240 0
FLAG 720 224 0
FLAG 272 -176 OMUX
FLAG 528 496 HI
FLAG 640 32 OUT
FLAG 656 384 OUTBAR
FLAG -672 640 0
FLAG -640 464 CHSEL0
FLAG 416 -160 3.3V
FLAG -224 0 IN
FLAG 80 1648 0
FLAG 80 800 3.3V
FLAG 320 1648 3.3V
FLAG 336 816 CM
FLAG 272 816 OMUX1
FLAG 528 1488 HI
FLAG 640 1024 OUT
FLAG 656 1376 OUTBAR
FLAG 240 1712 CHSEL0
FLAG 416 832 3.3V
FLAG 208 800 3.3V
FLAG -672 1184 0
FLAG -640 1008 OMUX
FLAG -528 1104 0
FLAG -480 1168 3.3V
FLAG -416 1008 OMUX1
FLAG 208 -192 0
FLAG -512 640 0
FLAG -480 464 3.3V
FLAG -672 912 0
FLAG -512 912 0
FLAG -480 736 HI
FLAG -656 736 CM
FLAG -224 1712 0
FLAG -112 1712 0
SYMBOL e -480 1024 R0
SYMATTR InstName E1
SYMATTR Value -1
SYMBOL cap 816 208 R90
WINDOW 0 0 32 VBottom 2
WINDOW 3 32 32 VTop 2
SYMATTR InstName C2
SYMATTR Value 0.1µ
SYMBOL res 816 96 R0
SYMATTR InstName Rload1
SYMATTR Value 50
SYMBOL res 816 240 R0
SYMATTR InstName Rload2
SYMATTR Value 50
SYMBOL voltage -512 496 R0
WINDOW 123 0 0 Left 0
WINDOW 39 0 0 Left 0
SYMATTR InstName V1
SYMATTR Value 3.3
SYMBOL voltage -672 768 R0
WINDOW 123 0 0 Left 0
WINDOW 39 0 0 Left 0
SYMATTR InstName V2
SYMATTR Value 0.7
SYMBOL voltage -512 768 R0
WINDOW 123 0 0 Left 0
WINDOW 39 0 0 Left 0
SYMATTR InstName V3
SYMATTR Value 3.3
SYMBOL cap -128 112 R0
SYMATTR InstName C1
SYMATTR Value 1p
SYMBOL voltage -672 496 R0
WINDOW 123 0 0 Left 0
WINDOW 39 0 0 Left 0
SYMATTR InstName V4
SYMATTR Value 3.3
SYMBOL voltage -672 1040 R0
WINDOW 123 0 0 Left 0
WINDOW 39 0 0 Left 0
SYMATTR InstName V5
SYMATTR Value 3.3
SYMBOL current -224 1584 M0
WINDOW 123 0 0 Left 0
WINDOW 39 0 0 Left 0
SYMATTR InstName I2
SYMATTR Value PULSE(0 90u .5m 0.1n 0.1n 0.1m 1m)
SYMBOL cap -128 1584 R0
SYMATTR InstName C3
SYMATTR Value 1p
SYMBOL current -224 96 M0
WINDOW 123 0 0 Left 0
WINDOW 39 0 0 Left 0
SYMATTR InstName I1
SYMATTR Value PULSE(0 45u .5m 0.1n 0.1n 0.1m 1m)
SYMBOL LTC6563 240 192 R0
SYMATTR InstName U1
SYMBOL LTC6563 240 1184 R0
SYMATTR InstName U2
TEXT -616 1288 Left 2 !.tran 5m
