Version 4
SHEET 1 1224 1848
WIRE 80 -176 80 -192
WIRE 144 -176 80 -176
WIRE 80 -112 80 -176
WIRE 144 -112 144 -176
WIRE 208 -112 208 -192
WIRE 272 -112 272 -176
WIRE 336 -112 336 -176
WIRE 416 -112 416 -160
WIRE -112 0 -208 0
WIRE -16 0 -112 0
WIRE 576 32 480 32
WIRE 640 32 576 32
WIRE 832 32 640 32
WIRE -1088 80 -1120 80
WIRE -1072 80 -1088 80
WIRE -928 80 -960 80
WIRE -912 80 -928 80
WIRE -208 96 -208 0
WIRE -112 112 -112 0
WIRE 832 112 832 32
WIRE -1120 128 -1120 80
WIRE -960 128 -960 80
WIRE 576 128 576 32
WIRE 576 128 480 128
WIRE 752 224 720 224
WIRE 832 224 832 192
WIRE 832 224 816 224
WIRE -208 240 -208 176
WIRE -112 240 -112 176
WIRE -1120 256 -1120 208
WIRE -960 256 -960 208
WIRE 832 256 832 224
WIRE 576 272 480 272
WIRE 576 384 576 272
WIRE 576 384 480 384
WIRE 656 384 576 384
WIRE 832 384 832 336
WIRE 832 384 656 384
WIRE 528 496 480 496
WIRE -1072 512 -1120 512
WIRE -944 512 -976 512
WIRE -928 512 -944 512
WIRE -1120 560 -1120 512
WIRE -976 560 -976 512
WIRE 80 624 80 560
WIRE 160 624 160 560
WIRE 160 624 80 624
WIRE 240 624 240 560
WIRE 240 624 160 624
WIRE 320 624 320 560
WIRE 400 624 400 560
WIRE 400 624 320 624
WIRE 80 656 80 624
WIRE 320 656 320 624
WIRE -1120 688 -1120 640
WIRE -976 688 -976 640
WIRE 80 816 80 800
WIRE 144 816 80 816
WIRE 80 880 80 816
WIRE 144 880 144 816
WIRE 208 880 208 800
WIRE 272 880 272 816
WIRE 336 880 336 816
WIRE 416 880 416 832
WIRE -1088 992 -1120 992
WIRE -976 992 -1088 992
WIRE -784 992 -928 992
WIRE -928 1024 -928 992
WIRE 544 1024 480 1024
WIRE -1120 1040 -1120 992
WIRE -976 1040 -976 992
WIRE 512 1120 480 1120
WIRE -928 1152 -928 1104
WIRE -1120 1168 -1120 1120
WIRE 512 1264 480 1264
WIRE 544 1376 480 1376
WIRE -112 1472 -208 1472
WIRE -16 1472 -112 1472
WIRE 544 1488 480 1488
WIRE -208 1584 -208 1472
WIRE -112 1584 -112 1472
WIRE 160 1616 160 1552
WIRE 240 1616 240 1552
WIRE 240 1616 160 1616
WIRE 320 1616 320 1552
WIRE 400 1616 400 1552
WIRE 400 1616 320 1616
WIRE 240 1648 240 1616
WIRE 320 1648 320 1616
WIRE -208 1712 -208 1664
WIRE -112 1712 -112 1648
WIRE 80 1712 80 1552
FLAG -208 240 0
FLAG 80 656 0
FLAG 80 -192 3.3V
FLAG 320 656 3.3V
FLAG 336 -176 CM
FLAG -112 240 0
FLAG 720 224 0
FLAG 272 -176 OMUX
FLAG 528 496 HI
FLAG 640 32 OUT
FLAG 656 384 OUTBAR
FLAG -1120 256 0
FLAG -1088 80 CHSEL0
FLAG 416 -160 3.3V
FLAG -208 0 IN
FLAG 80 1712 0
FLAG 80 800 3.3V
FLAG 320 1648 3.3V
FLAG 336 816 CM
FLAG 272 816 OMUX1
FLAG 544 1488 HI
FLAG 544 1024 OUT
FLAG 544 1376 OUTBAR
FLAG 240 1648 CHSEL0
FLAG 416 832 3.3V
FLAG 208 800 3.3V
FLAG -1120 1168 0
FLAG -1088 992 OMUX
FLAG -976 1088 0
FLAG -928 1152 3.3V
FLAG -784 992 OMUX1
FLAG 208 -192 0
FLAG -960 256 0
FLAG -928 80 3.3V
FLAG -1120 688 0
FLAG -976 688 0
FLAG -944 512 HI
FLAG -1120 512 CM
FLAG -208 1712 0
FLAG -112 1712 0
SYMBOL e -928 1008 R0
SYMATTR InstName E1
SYMATTR Value -1
SYMBOL cap 816 208 R90
WINDOW 0 0 32 VBottom 2
WINDOW 3 32 32 VTop 2
SYMATTR InstName C2
SYMATTR Value 0.1µ
SYMBOL res 816 96 R0
SYMATTR InstName Rload1
SYMATTR Value 50
SYMBOL res 816 240 R0
SYMATTR InstName Rload2
SYMATTR Value 50
SYMBOL voltage -960 112 R0
WINDOW 123 0 0 Left 0
WINDOW 39 0 0 Left 0
SYMATTR InstName V1
SYMATTR Value 3.3
SYMBOL voltage -1120 544 R0
WINDOW 123 0 0 Left 0
WINDOW 39 0 0 Left 0
SYMATTR InstName V2
SYMATTR Value 1.8
SYMBOL voltage -976 544 R0
WINDOW 123 0 0 Left 0
WINDOW 39 0 0 Left 0
SYMATTR InstName V3
SYMATTR Value 3.3
SYMBOL cap -128 112 R0
SYMATTR InstName C1
SYMATTR Value 1p
SYMBOL voltage -1120 112 R0
WINDOW 123 0 0 Left 0
WINDOW 39 0 0 Left 0
SYMATTR InstName V4
SYMATTR Value 3.3
SYMBOL voltage -1120 1024 R0
WINDOW 123 0 0 Left 0
WINDOW 39 0 0 Left 0
SYMATTR InstName V5
SYMATTR Value 3.3
SYMBOL current -208 1584 M0
WINDOW 123 0 0 Left 0
WINDOW 39 0 0 Left 0
SYMATTR InstName I2
SYMATTR Value PULSE(0 90u .5m 0.1n 0.1n 0.1m 1m)
SYMBOL cap -128 1584 R0
SYMATTR InstName C3
SYMATTR Value 1p
SYMBOL current -208 96 M0
WINDOW 123 0 0 Left 0
WINDOW 39 0 0 Left 0
SYMATTR InstName I1
SYMATTR Value PULSE(0 45u .5m 0.1n 0.1n 0.1m 1m)
SYMBOL LTC6563 240 192 R0
SYMATTR InstName U1
SYMBOL LTC6563 240 1184 R0
SYMATTR InstName U2
TEXT -1144 1392 Left 2 !.tran 5m
TEXT -1144 1416 Left 2 ;Large overload could create unreal artifacts
