Version 4
SHEET 1 880 680
WIRE 96 -112 -32 -112
WIRE 400 -112 176 -112
WIRE -32 -48 -32 -112
WIRE 48 -48 -32 -48
WIRE 224 -48 48 -48
WIRE 384 -48 304 -48
WIRE -32 -16 -32 -48
WIRE 48 32 48 -48
WIRE 144 32 48 32
WIRE 384 32 384 -48
WIRE 384 32 368 32
WIRE -32 80 -32 64
WIRE 144 128 112 128
WIRE 400 128 400 -112
WIRE 400 128 368 128
WIRE 48 224 48 32
WIRE 96 224 48 224
WIRE 144 224 96 224
WIRE 384 224 368 224
WIRE 144 320 112 320
WIRE 400 320 368 320
WIRE 144 416 112 416
WIRE 400 416 368 416
FLAG 384 224 0
FLAG -32 80 0
FLAG 112 320 OUT1
FLAG 112 416 OUT2
FLAG 400 320 OUT4
FLAG 400 416 OUT3
FLAG 96 224 PH
FLAG 112 128 DIV
SYMBOL SpecialFunctions\\LTC6902 256 224 R0
SYMATTR InstName U1
SYMBOL voltage -32 -32 R0
SYMATTR InstName V1
SYMATTR Value 5
SYMBOL res 208 -32 R270
WINDOW 0 32 56 VTop 2
WINDOW 3 0 56 VBottom 2
SYMATTR InstName R1
SYMATTR Value 10K
SYMBOL res 80 -96 R270
WINDOW 0 32 56 VTop 2
WINDOW 3 0 56 VBottom 2
SYMATTR InstName R2
SYMATTR Value 10K
TEXT 520 416 Left 2 !.tran .5m
