Version 4
SHEET 1 880 680
WIRE 32 144 0 144
WIRE 96 144 32 144
WIRE 112 144 96 144
WIRE 528 144 400 144
WIRE 560 144 528 144
WIRE 0 160 0 144
WIRE 560 160 560 144
WIRE 96 208 96 144
WIRE 112 208 96 208
WIRE 448 208 400 208
WIRE 448 224 448 208
WIRE 0 256 0 240
WIRE 256 272 256 240
WIRE 448 320 448 288
WIRE 560 320 560 224
FLAG 560 320 0
FLAG 448 320 0
FLAG 256 272 0
FLAG 0 256 0
FLAG 32 144 IN
FLAG 528 144 OUT
SYMBOL cap 544 160 R0
SYMATTR InstName C1
SYMATTR Value 10µ
SYMBOL cap 432 224 R0
SYMATTR InstName C2
SYMATTR Value 10µ
SYMBOL voltage 0 144 R0
SYMATTR InstName V1
SYMATTR Value 5.5
SYMBOL LTC6655LN-5 256 176 R0
SYMATTR InstName U1
TEXT 168 352 Left 2 !.tran 50m startup
