Version 4
SHEET 1 1144 680
WIRE -64 144 -176 144
WIRE 32 144 -64 144
WIRE 80 144 32 144
WIRE 560 144 368 144
WIRE -176 176 -176 144
WIRE -64 192 -64 144
WIRE 560 192 560 144
WIRE 32 208 32 144
WIRE 80 208 32 208
WIRE 464 208 368 208
WIRE -176 288 -176 256
WIRE -64 288 -64 256
WIRE 224 288 224 240
WIRE 464 288 464 272
WIRE 560 288 560 256
FLAG -64 288 0
FLAG -176 288 0
FLAG 464 288 0
FLAG 560 288 0
FLAG 560 144 vOUT
FLAG -176 144 vIN
FLAG 224 288 0
SYMBOL cap -80 192 R0
SYMATTR InstName C1
SYMATTR Value 1µ
SYMBOL voltage -176 160 R0
WINDOW 123 0 0 Left 0
WINDOW 39 0 0 Left 0
SYMATTR InstName V1
SYMATTR Value 5
SYMBOL cap 448 208 R0
SYMATTR InstName C2
SYMATTR Value 10µ
SYMBOL cap 544 192 R0
SYMATTR InstName C3
SYMATTR Value 10µ
SYMBOL LTC6655LN-2.5 224 176 R0
SYMATTR InstName U1
TEXT -192 360 Left 2 !.tran 5m startup
