Version 4
SHEET 1 1924 1148
WIRE 128 -368 -304 -368
WIRE 224 -368 128 -368
WIRE 832 -368 224 -368
WIRE 1200 -336 304 -336
WIRE -304 -320 -304 -368
WIRE -112 -304 -208 -304
WIRE -32 -304 -112 -304
WIRE 48 -304 -32 -304
WIRE -208 -272 -208 -304
WIRE -112 -272 -112 -304
WIRE 48 -256 48 -304
WIRE 128 -256 128 -368
WIRE 224 -256 224 -368
WIRE 304 -256 304 -336
WIRE -304 -192 -304 -240
WIRE -208 -192 -208 -208
WIRE -112 -176 -112 -192
WIRE -32 -176 -112 -176
WIRE -32 -96 -96 -96
WIRE 448 -96 384 -96
WIRE 832 -48 832 -368
WIRE 960 -48 832 -48
WIRE -32 -16 -64 -16
WIRE 448 -16 448 -32
WIRE 448 -16 384 -16
WIRE 832 16 832 -48
WIRE 960 16 960 -48
WIRE 544 32 416 32
WIRE 416 64 416 32
WIRE 416 64 384 64
WIRE 448 64 448 -16
WIRE 544 64 544 32
WIRE 560 64 544 64
WIRE 736 64 640 64
WIRE 736 96 736 64
WIRE 784 96 736 96
WIRE 1040 96 1008 96
WIRE 624 128 544 128
WIRE 736 128 736 96
WIRE 736 128 704 128
WIRE -32 144 -96 144
WIRE 416 144 384 144
WIRE 832 160 832 112
WIRE 960 160 960 112
WIRE 960 160 832 160
WIRE 416 176 416 144
WIRE 544 176 544 128
WIRE 544 176 416 176
WIRE 736 176 736 128
WIRE 1040 176 1040 96
WIRE 1040 176 736 176
WIRE -176 224 -240 224
WIRE -32 224 -96 224
WIRE 448 224 448 128
WIRE 448 224 384 224
WIRE 832 224 832 160
WIRE 832 224 448 224
WIRE 928 224 832 224
WIRE 1056 224 1008 224
WIRE 1088 224 1056 224
WIRE 1200 224 1200 -336
WIRE 1200 224 1168 224
WIRE 1264 224 1200 224
WIRE 1360 224 1264 224
WIRE 1456 224 1360 224
WIRE 832 256 832 224
WIRE 1264 256 1264 224
WIRE 1360 256 1360 224
WIRE 1456 256 1456 224
WIRE -32 304 -96 304
WIRE 560 304 384 304
WIRE 736 304 640 304
WIRE 736 336 736 304
WIRE 784 336 736 336
WIRE 1264 352 1264 320
WIRE 1360 352 1360 320
WIRE 1456 352 1456 336
WIRE 624 368 544 368
WIRE 736 368 736 336
WIRE 736 368 704 368
WIRE -96 384 -96 304
WIRE -32 384 -96 384
WIRE 544 384 544 368
WIRE 544 384 384 384
WIRE 832 400 832 352
WIRE -96 464 -96 384
WIRE -32 464 -96 464
WIRE 432 464 384 464
WIRE 1056 464 1056 224
WIRE 1056 464 432 464
WIRE -32 544 -256 544
WIRE 432 544 432 528
WIRE 432 544 384 544
WIRE 1200 544 1200 224
WIRE 1200 544 432 544
WIRE -256 560 -256 544
WIRE -32 624 -176 624
WIRE 464 624 384 624
WIRE 560 624 464 624
WIRE 1200 624 1200 544
WIRE 1200 624 640 624
WIRE -256 640 -256 624
WIRE -176 640 -176 624
WIRE 464 656 464 624
WIRE -176 720 -176 704
WIRE 80 720 80 704
WIRE 272 768 272 704
WIRE 464 768 464 736
FLAG -304 -192 0
FLAG -96 -96 0
FLAG -208 -192 0
FLAG -256 640 0
FLAG -176 720 0
FLAG 272 768 0
FLAG 832 400 0
FLAG 464 768 0
FLAG 1264 352 0
FLAG 1360 352 0
FLAG -240 224 0
FLAG -96 144 0
FLAG 1456 352 0
FLAG -32 -304 INTVcc
FLAG -96 304 INTVcc
FLAG -304 -368 vIN
FLAG 1456 224 vOUT
FLAG -64 -16 INTVcc
FLAG 80 720 INTVcc
SYMBOL voltage -304 -336 R0
WINDOW 123 0 0 Left 0
WINDOW 39 0 0 Left 0
SYMATTR InstName V1
SYMATTR Value 30
SYMBOL cap -224 -272 R0
SYMATTR InstName C1
SYMATTR Value 4.7µ
SYMBOL cap -240 560 M0
SYMATTR InstName C2
SYMATTR Value 0.01µ
SYMBOL cap -160 640 M0
WINDOW 3 43 36 Left 2
WINDOW 123 44 61 Left 2
SYMATTR Value 4.7n
SYMATTR Value2 rser=9.3k cpar=47p
SYMATTR InstName C3
SYMBOL cap 432 64 R0
SYMATTR InstName C4
SYMATTR Value 0.1µ
SYMBOL ind 912 240 R270
WINDOW 0 32 56 VTop 2
WINDOW 3 5 56 VBottom 2
SYMATTR InstName L1
SYMATTR Value 3.3µ
SYMATTR SpiceLine Ipk=68.4 Rser=0.00186 Rpar=310.86 Cpar=0 mfg="Coilcraft" pn="SER2915H-332"
SYMBOL diode 432 -96 R0
SYMATTR InstName D1
SYMATTR Value MURS120
SYMBOL res 656 48 R90
WINDOW 0 0 56 VBottom 2
WINDOW 3 32 56 VTop 2
SYMATTR InstName R1
SYMATTR Value 2
SYMBOL res 720 112 R90
WINDOW 0 0 56 VBottom 2
WINDOW 3 32 56 VTop 2
SYMATTR InstName R2
SYMATTR Value 2
SYMBOL res 656 288 R90
WINDOW 0 0 56 VBottom 2
WINDOW 3 32 56 VTop 2
SYMATTR InstName R3
SYMATTR Value 4
SYMBOL res 720 352 R90
WINDOW 0 0 56 VBottom 2
WINDOW 3 32 56 VTop 2
SYMATTR InstName R4
SYMATTR Value 2
SYMBOL res 1184 208 R90
WINDOW 0 0 56 VBottom 2
WINDOW 3 32 56 VTop 2
SYMATTR InstName R5
SYMATTR Value 2m
SYMBOL cap 416 464 R0
SYMATTR InstName C5
SYMATTR Value 1n
SYMBOL res 656 608 R90
WINDOW 0 0 56 VBottom 2
WINDOW 3 32 56 VTop 2
SYMATTR InstName R6
SYMATTR Value 309k
SYMBOL res 448 752 M180
WINDOW 0 36 76 Left 2
WINDOW 3 36 40 Left 2
SYMATTR InstName R7
SYMATTR Value 10.7k
SYMBOL polcap 1248 256 R0
WINDOW 123 24 84 Left 2
WINDOW 3 24 56 Left 2
SYMATTR Value2 x2
SYMATTR Value 4.7µ
SYMATTR InstName C6
SYMATTR Description Capacitor
SYMATTR Type cap
SYMATTR SpiceLine V=63 Irms=866.025m Rser=0.3 Lser=0 mfg="KEMET" pn="T521D475M063ATE300" type="Tantalum"
SYMBOL polcap 1344 256 R0
WINDOW 3 24 56 Left 2
SYMATTR Value 47µ
SYMATTR InstName C7
SYMATTR Description Capacitor
SYMATTR Type cap
SYMATTR SpiceLine V=35 Irms=2.86938 Rser=0.1 Lser=0
SYMBOL res -80 208 R90
WINDOW 0 0 56 VBottom 2
WINDOW 3 32 56 VTop 2
SYMATTR InstName R8
SYMATTR Value 75k
SYMBOL res 1440 240 R0
SYMATTR InstName R10
SYMATTR Value 1.6
SYMBOL res -128 -288 R0
SYMATTR InstName R11
SYMATTR Value 100k
SYMBOL LTC7891 176 240 R0
SYMATTR InstName U5
SYMBOL SpecialFunctions\\EPC2007 768 96 R0
WINDOW 3 81 19 Left 2
SYMATTR InstName U1
SYMBOL SpecialFunctions\\EPC2007 768 336 R0
SYMATTR InstName U2
SYMBOL SpecialFunctions\\EPC2007 1024 96 M0
SYMATTR InstName U3
TEXT -456 856 Left 2 !.tran 10m startup
