Version 4
SHEET 1 4664 2744
WIRE 688 -896 576 -896
WIRE 752 -896 688 -896
WIRE 864 -896 832 -896
WIRE 976 -896 864 -896
WIRE 1088 -896 976 -896
WIRE 1200 -896 1088 -896
WIRE 1248 -896 1200 -896
WIRE 1312 -896 1248 -896
WIRE 688 -880 688 -896
WIRE 1312 -880 1312 -896
WIRE 864 -864 864 -896
WIRE 976 -864 976 -896
WIRE 1088 -864 1088 -896
WIRE 1200 -864 1200 -896
WIRE 688 -800 688 -816
WIRE 864 -768 864 -784
WIRE 864 -768 576 -768
WIRE 1200 -768 1200 -800
WIRE 1312 -768 1312 -800
WIRE 976 -736 976 -784
WIRE 976 -736 576 -736
WIRE 640 -704 576 -704
WIRE 1088 -704 1088 -784
WIRE 1088 -704 640 -704
WIRE 864 -688 864 -768
WIRE 976 -688 976 -736
WIRE 1088 -688 1088 -704
WIRE 688 -592 576 -592
WIRE 864 -592 864 -608
WIRE 864 -592 768 -592
WIRE 976 -592 976 -608
WIRE 976 -592 864 -592
WIRE 1088 -592 1088 -608
WIRE 1088 -592 976 -592
WIRE 1184 -592 1088 -592
WIRE -224 -576 -272 -576
WIRE -128 -576 -160 -576
WIRE -48 -576 -128 -576
WIRE 256 -576 -48 -576
WIRE -272 -560 -272 -576
WIRE -128 -544 -128 -576
WIRE 32 -496 -16 -496
WIRE 128 -496 96 -496
WIRE 208 -496 128 -496
WIRE 256 -496 208 -496
WIRE 640 -496 576 -496
WIRE 2176 -496 640 -496
WIRE 2272 -496 2176 -496
WIRE 128 -480 128 -496
WIRE 1968 -448 576 -448
WIRE 2064 -448 1968 -448
WIRE 1968 -416 1968 -448
WIRE 2064 -416 2064 -448
WIRE 2176 -416 2176 -496
WIRE 2272 -416 2272 -496
WIRE -272 -400 -272 -480
WIRE -128 -400 -128 -480
WIRE -128 -400 -272 -400
WIRE -16 -400 -16 -416
WIRE -16 -400 -128 -400
WIRE 128 -400 128 -416
WIRE 128 -400 -16 -400
WIRE 688 -400 576 -400
WIRE 784 -400 688 -400
WIRE 1888 -400 848 -400
WIRE -128 -384 -128 -400
WIRE 688 -384 688 -400
WIRE -176 -352 -544 -352
WIRE 1392 -352 1024 -352
WIRE 1392 -336 1392 -352
WIRE -544 -320 -544 -352
WIRE -432 -304 -464 -304
WIRE -336 -304 -368 -304
WIRE -304 -304 -336 -304
WIRE -176 -304 -176 -352
WIRE -176 -304 -224 -304
WIRE -96 -304 -176 -304
WIRE -16 -304 -96 -304
WIRE 688 -304 688 -320
WIRE 944 -304 864 -304
WIRE 1024 -304 1024 -352
WIRE 1024 -304 944 -304
WIRE 1072 -304 1024 -304
WIRE 1184 -304 1152 -304
WIRE 1216 -304 1184 -304
WIRE 1312 -304 1280 -304
WIRE 1968 -304 1968 -336
WIRE 2272 -304 2272 -336
WIRE -336 -256 -336 -304
WIRE 624 -256 576 -256
WIRE 1184 -256 1184 -304
WIRE -752 -224 -864 -224
WIRE -656 -224 -752 -224
WIRE 1616 -224 1504 -224
WIRE 1712 -224 1616 -224
WIRE 1888 -224 1888 -400
WIRE 2064 -224 2064 -336
WIRE 2064 -224 1888 -224
WIRE 1712 -208 1712 -224
WIRE -864 -192 -864 -224
WIRE -544 -192 -544 -256
WIRE -528 -192 -544 -192
WIRE -496 -192 -528 -192
WIRE -16 -192 -16 -304
WIRE -16 -192 -176 -192
WIRE 864 -192 864 -304
WIRE 1024 -192 864 -192
WIRE 1376 -192 1344 -192
WIRE 1392 -192 1392 -272
WIRE 1392 -192 1376 -192
WIRE -656 -176 -656 -224
WIRE -16 -176 -16 -192
WIRE 864 -176 864 -192
WIRE 1504 -176 1504 -224
WIRE 1712 -128 1712 -144
WIRE -864 -96 -864 -128
WIRE -528 -96 -608 -96
WIRE -496 -96 -528 -96
WIRE -144 -96 -176 -96
WIRE -16 -96 -16 -112
WIRE 864 -96 864 -112
WIRE 1024 -96 992 -96
WIRE 1376 -96 1344 -96
WIRE 1456 -96 1376 -96
WIRE -1280 0 -1360 0
WIRE -1248 0 -1280 0
WIRE -1216 0 -1248 0
WIRE -1168 0 -1216 0
WIRE -1040 0 -1088 0
WIRE -992 0 -1040 0
WIRE -864 0 -912 0
WIRE -768 0 -864 0
WIRE -656 0 -656 -80
WIRE -656 0 -768 0
WIRE -544 0 -544 -128
WIRE -544 0 -656 0
WIRE -496 0 -544 0
WIRE 1392 0 1392 -128
WIRE 1392 0 1344 0
WIRE 1504 0 1504 -80
WIRE 1504 0 1392 0
WIRE 1616 0 1504 0
WIRE 1712 0 1616 0
WIRE 1760 0 1712 0
WIRE 1888 0 1840 0
WIRE 1936 0 1888 0
WIRE 2064 0 2064 -224
WIRE 2064 0 2016 0
WIRE 2128 0 2064 0
WIRE 2176 0 2176 -336
WIRE 2176 0 2128 0
WIRE 2208 0 2176 0
WIRE 2288 0 2208 0
WIRE 2400 0 2288 0
WIRE -1280 16 -1280 0
WIRE -656 16 -656 0
WIRE 1504 16 1504 0
WIRE 2128 16 2128 0
WIRE 2288 16 2288 0
WIRE 2400 16 2400 0
WIRE -1040 48 -1040 0
WIRE -864 48 -864 0
WIRE 1712 48 1712 0
WIRE 1888 48 1888 0
WIRE -528 96 -608 96
WIRE -496 96 -528 96
WIRE 208 96 -176 96
WIRE 256 96 208 96
WIRE 624 96 576 96
WIRE 1024 96 624 96
WIRE 1376 96 1344 96
WIRE 1456 96 1376 96
WIRE -1280 112 -1280 80
WIRE 2128 112 2128 80
WIRE 2288 112 2288 80
WIRE 2400 112 2400 96
WIRE -656 192 -656 112
WIRE -496 192 -656 192
WIRE -80 192 -176 192
WIRE 1024 192 928 192
WIRE 1504 192 1504 112
WIRE 1504 192 1344 192
WIRE -656 208 -656 192
WIRE 1504 208 1504 192
WIRE -1216 224 -1216 0
WIRE -992 224 -1216 224
WIRE -976 224 -992 224
WIRE -864 224 -864 128
WIRE -864 224 -896 224
WIRE 1712 224 1712 128
WIRE 1744 224 1712 224
WIRE 1840 224 1824 224
WIRE 2064 224 2064 0
WIRE 2064 224 1840 224
WIRE -336 272 -336 256
WIRE -80 272 -336 272
WIRE 1184 272 1184 256
WIRE 1184 272 928 272
WIRE -336 288 -336 272
WIRE 1184 288 1184 272
WIRE -1216 320 -1216 224
WIRE -1152 320 -1216 320
WIRE -1040 320 -1040 128
WIRE -1040 320 -1088 320
WIRE -992 320 -992 224
WIRE -960 320 -992 320
WIRE -864 320 -864 224
WIRE -864 320 -896 320
WIRE 256 320 -864 320
WIRE 272 320 256 320
WIRE 1712 320 1712 224
WIRE 1712 320 576 320
WIRE 1744 320 1712 320
WIRE 1840 320 1840 224
WIRE 1840 320 1808 320
WIRE 1888 320 1888 128
WIRE 1952 320 1888 320
WIRE 2064 320 2064 224
WIRE 2064 320 2016 320
WIRE -1040 368 -1040 320
WIRE 256 368 -1040 368
WIRE 1888 368 1888 320
WIRE 1888 368 576 368
WIRE -1216 416 -1216 320
WIRE 256 416 -1216 416
WIRE 2064 416 2064 320
WIRE 2064 416 576 416
WIRE -176 464 -544 464
WIRE 96 464 80 464
WIRE 256 464 176 464
WIRE 272 464 256 464
WIRE 624 464 576 464
WIRE 1392 464 1024 464
WIRE -544 480 -544 464
WIRE 1392 480 1392 464
WIRE -432 512 -464 512
WIRE -336 512 -368 512
WIRE -304 512 -336 512
WIRE -176 512 -176 464
WIRE -176 512 -224 512
WIRE -96 512 -176 512
WIRE -16 512 -96 512
WIRE 944 512 864 512
WIRE 1024 512 1024 464
WIRE 1024 512 944 512
WIRE 1072 512 1024 512
WIRE 1184 512 1152 512
WIRE 1216 512 1184 512
WIRE 1312 512 1280 512
WIRE -336 560 -336 512
WIRE 1184 560 1184 512
WIRE -752 592 -864 592
WIRE -656 592 -752 592
WIRE 1616 592 1504 592
WIRE 1712 592 1616 592
WIRE -864 608 -864 592
WIRE 1712 608 1712 592
WIRE -544 624 -544 544
WIRE -528 624 -544 624
WIRE -496 624 -528 624
WIRE -16 624 -16 512
WIRE -16 624 -176 624
WIRE 864 624 864 512
WIRE 1024 624 864 624
WIRE 1376 624 1344 624
WIRE 1392 624 1392 544
WIRE 1392 624 1376 624
WIRE -656 640 -656 592
WIRE -16 640 -16 624
WIRE 864 640 864 624
WIRE 1504 640 1504 592
WIRE -864 688 -864 672
WIRE 1712 688 1712 672
WIRE -528 720 -608 720
WIRE -496 720 -528 720
WIRE -144 720 -176 720
WIRE -16 720 -16 704
WIRE 864 720 864 704
WIRE 1024 720 992 720
WIRE 1376 720 1344 720
WIRE 1456 720 1376 720
WIRE -1360 816 -1360 0
WIRE -1280 816 -1360 816
WIRE -1248 816 -1280 816
WIRE -1216 816 -1248 816
WIRE -1168 816 -1216 816
WIRE -1040 816 -1088 816
WIRE -992 816 -1040 816
WIRE -864 816 -912 816
WIRE -768 816 -864 816
WIRE -656 816 -656 736
WIRE -656 816 -768 816
WIRE -544 816 -544 688
WIRE -544 816 -656 816
WIRE -496 816 -544 816
WIRE 1392 816 1392 688
WIRE 1392 816 1344 816
WIRE 1504 816 1504 736
WIRE 1504 816 1392 816
WIRE 1616 816 1504 816
WIRE 1712 816 1616 816
WIRE 1760 816 1712 816
WIRE 1888 816 1840 816
WIRE 1936 816 1888 816
WIRE 2064 816 2016 816
WIRE 2096 816 2064 816
WIRE 2128 816 2096 816
WIRE 2208 816 2208 0
WIRE 2208 816 2128 816
WIRE -1280 832 -1280 816
WIRE -656 832 -656 816
WIRE 1504 832 1504 816
WIRE 2128 832 2128 816
WIRE -1040 864 -1040 816
WIRE -864 864 -864 816
WIRE 1712 864 1712 816
WIRE 1888 864 1888 816
WIRE -528 912 -608 912
WIRE -496 912 -528 912
WIRE 208 912 -176 912
WIRE 256 912 208 912
WIRE 624 912 576 912
WIRE 1024 912 624 912
WIRE 1376 912 1344 912
WIRE 1456 912 1376 912
WIRE -1280 928 -1280 896
WIRE 2128 928 2128 896
WIRE -656 1008 -656 928
WIRE -496 1008 -656 1008
WIRE -80 1008 -176 1008
WIRE 1024 1008 928 1008
WIRE 1504 1008 1504 928
WIRE 1504 1008 1344 1008
WIRE -656 1024 -656 1008
WIRE 1504 1024 1504 1008
WIRE -1216 1040 -1216 816
WIRE -992 1040 -1216 1040
WIRE -976 1040 -992 1040
WIRE -864 1040 -864 944
WIRE -864 1040 -896 1040
WIRE 1712 1040 1712 944
WIRE 1744 1040 1712 1040
WIRE 1856 1040 1824 1040
WIRE 2064 1040 2064 816
WIRE 2064 1040 1856 1040
WIRE -336 1088 -336 1072
WIRE -80 1088 -336 1088
WIRE 1184 1088 1184 1072
WIRE 1184 1088 928 1088
WIRE -336 1104 -336 1088
WIRE 1184 1104 1184 1088
WIRE -1216 1136 -1216 1040
WIRE -1152 1136 -1216 1136
WIRE -1040 1136 -1040 944
WIRE -1040 1136 -1088 1136
WIRE -992 1136 -992 1040
WIRE -960 1136 -992 1136
WIRE -864 1136 -864 1040
WIRE -864 1136 -896 1136
WIRE 256 1136 -864 1136
WIRE 1712 1136 1712 1040
WIRE 1712 1136 576 1136
WIRE 1760 1136 1712 1136
WIRE 1856 1136 1856 1040
WIRE 1856 1136 1824 1136
WIRE 1888 1136 1888 944
WIRE 1952 1136 1888 1136
WIRE 2064 1136 2064 1040
WIRE 2064 1136 2016 1136
WIRE -1040 1184 -1040 1136
WIRE 256 1184 -1040 1184
WIRE 1888 1184 1888 1136
WIRE 1888 1184 576 1184
WIRE -1216 1232 -1216 1136
WIRE 256 1232 -1216 1232
WIRE 2064 1232 2064 1136
WIRE 2064 1232 576 1232
WIRE -176 1280 -544 1280
WIRE 624 1280 576 1280
WIRE 672 1280 624 1280
WIRE 784 1280 752 1280
WIRE 1392 1280 1024 1280
WIRE -544 1296 -544 1280
WIRE 1392 1312 1392 1280
WIRE -432 1328 -464 1328
WIRE -336 1328 -368 1328
WIRE -304 1328 -336 1328
WIRE -176 1328 -176 1280
WIRE -176 1328 -224 1328
WIRE -96 1328 -176 1328
WIRE -16 1328 -96 1328
WIRE 960 1328 864 1328
WIRE 1024 1328 1024 1280
WIRE 1024 1328 960 1328
WIRE 1072 1328 1024 1328
WIRE 1184 1328 1152 1328
WIRE 1216 1328 1184 1328
WIRE 1312 1328 1280 1328
WIRE -336 1376 -336 1328
WIRE 1184 1376 1184 1328
WIRE -752 1408 -864 1408
WIRE -656 1408 -752 1408
WIRE 1616 1408 1504 1408
WIRE 1712 1408 1616 1408
WIRE -864 1424 -864 1408
WIRE 1712 1424 1712 1408
WIRE -544 1440 -544 1360
WIRE -528 1440 -544 1440
WIRE -496 1440 -528 1440
WIRE -16 1440 -16 1328
WIRE -16 1440 -176 1440
WIRE 864 1440 864 1328
WIRE 1024 1440 864 1440
WIRE 1376 1440 1344 1440
WIRE 1392 1440 1392 1376
WIRE 1392 1440 1376 1440
WIRE -656 1456 -656 1408
WIRE -16 1456 -16 1440
WIRE 864 1456 864 1440
WIRE 1504 1456 1504 1408
WIRE -864 1504 -864 1488
WIRE 1712 1504 1712 1488
WIRE -528 1536 -608 1536
WIRE -496 1536 -528 1536
WIRE -144 1536 -176 1536
WIRE -16 1536 -16 1520
WIRE 864 1536 864 1520
WIRE 1024 1536 992 1536
WIRE 1376 1536 1344 1536
WIRE 1456 1536 1376 1536
WIRE -1360 1632 -1360 816
WIRE -1280 1632 -1360 1632
WIRE -1248 1632 -1280 1632
WIRE -1216 1632 -1248 1632
WIRE -1168 1632 -1216 1632
WIRE -1040 1632 -1088 1632
WIRE -992 1632 -1040 1632
WIRE -864 1632 -912 1632
WIRE -768 1632 -864 1632
WIRE -656 1632 -656 1552
WIRE -656 1632 -768 1632
WIRE -544 1632 -544 1504
WIRE -544 1632 -656 1632
WIRE -496 1632 -544 1632
WIRE 1392 1632 1392 1504
WIRE 1392 1632 1344 1632
WIRE 1504 1632 1504 1552
WIRE 1504 1632 1392 1632
WIRE 1616 1632 1504 1632
WIRE 1712 1632 1616 1632
WIRE 1760 1632 1712 1632
WIRE 1888 1632 1840 1632
WIRE 1936 1632 1888 1632
WIRE 2064 1632 2016 1632
WIRE 2096 1632 2064 1632
WIRE 2128 1632 2096 1632
WIRE 2208 1632 2208 816
WIRE 2208 1632 2128 1632
WIRE -1280 1648 -1280 1632
WIRE -656 1648 -656 1632
WIRE 1504 1648 1504 1632
WIRE 2128 1648 2128 1632
WIRE -1040 1680 -1040 1632
WIRE -864 1680 -864 1632
WIRE 1712 1680 1712 1632
WIRE 1888 1680 1888 1632
WIRE -528 1728 -608 1728
WIRE -496 1728 -528 1728
WIRE 208 1728 -176 1728
WIRE 256 1728 208 1728
WIRE 624 1728 576 1728
WIRE 1024 1728 624 1728
WIRE 1376 1728 1344 1728
WIRE 1456 1728 1376 1728
WIRE -1280 1744 -1280 1712
WIRE 2128 1744 2128 1712
WIRE -656 1824 -656 1744
WIRE -496 1824 -656 1824
WIRE -80 1824 -176 1824
WIRE 1024 1824 928 1824
WIRE 1504 1824 1504 1744
WIRE 1504 1824 1344 1824
WIRE -656 1840 -656 1824
WIRE 1504 1840 1504 1824
WIRE -1216 1856 -1216 1632
WIRE -992 1856 -1216 1856
WIRE -976 1856 -992 1856
WIRE -864 1856 -864 1760
WIRE -864 1856 -896 1856
WIRE 1712 1856 1712 1760
WIRE 1744 1856 1712 1856
WIRE 1856 1856 1824 1856
WIRE 2064 1856 2064 1632
WIRE 2064 1856 1856 1856
WIRE -336 1904 -336 1888
WIRE -80 1904 -336 1904
WIRE 1184 1904 1184 1888
WIRE 1184 1904 928 1904
WIRE -336 1920 -336 1904
WIRE 1184 1920 1184 1904
WIRE -1216 1952 -1216 1856
WIRE -1152 1952 -1216 1952
WIRE -1040 1952 -1040 1760
WIRE -1040 1952 -1088 1952
WIRE -992 1952 -992 1856
WIRE -960 1952 -992 1952
WIRE -864 1952 -864 1856
WIRE -864 1952 -896 1952
WIRE 256 1952 -864 1952
WIRE 1712 1952 1712 1856
WIRE 1712 1952 576 1952
WIRE 1760 1952 1712 1952
WIRE 1856 1952 1856 1856
WIRE 1856 1952 1824 1952
WIRE 1888 1952 1888 1760
WIRE 1952 1952 1888 1952
WIRE 2064 1952 2064 1856
WIRE 2064 1952 2016 1952
WIRE -1040 2000 -1040 1952
WIRE 256 2000 -1040 2000
WIRE 1888 2000 1888 1952
WIRE 1888 2000 576 2000
WIRE -1216 2048 -1216 1952
WIRE 256 2048 -1216 2048
WIRE 2064 2048 2064 1952
WIRE 2064 2048 576 2048
WIRE 256 2096 -112 2096
WIRE 640 2096 576 2096
WIRE 928 2096 640 2096
WIRE 928 2112 928 2096
WIRE -112 2144 -112 2096
WIRE -80 2144 -112 2144
WIRE 32 2144 0 2144
WIRE 96 2144 32 2144
WIRE 208 2144 96 2144
WIRE 256 2144 208 2144
WIRE 640 2144 576 2144
WIRE 816 2144 640 2144
WIRE 816 2160 816 2144
WIRE -112 2176 -112 2144
WIRE 32 2192 32 2144
WIRE 96 2192 96 2144
WIRE 128 2192 96 2192
WIRE 256 2192 208 2192
WIRE 640 2192 576 2192
WIRE 704 2192 640 2192
WIRE 704 2208 704 2192
WIRE -112 2288 -112 2256
WIRE 32 2288 32 2256
WIRE 32 2288 -112 2288
WIRE 416 2288 416 2240
WIRE 416 2288 32 2288
WIRE 704 2288 704 2272
WIRE 704 2288 416 2288
WIRE 816 2288 816 2224
WIRE 816 2288 704 2288
WIRE 928 2288 928 2176
WIRE 928 2288 816 2288
WIRE 704 2304 704 2288
FLAG 2272 -304 0
FLAG -128 -384 0
FLAG 704 2304 0
FLAG 80 464 0
FLAG 1968 -304 0
FLAG -656 208 0
FLAG 688 -304 0
FLAG 688 -800 0
FLAG 1184 -592 0
FLAG 208 2144 V5
FLAG 624 464 V5
FLAG 624 1280 PWMEN
FLAG -16 -96 0
FLAG -464 -304 0
FLAG -336 288 0
FLAG 208 96 PWM1
FLAG -144 -96 PWMEN
FLAG -96 -304 DRVcc
FLAG 640 2096 DRVcc
FLAG 1312 -768 0
FLAG 1200 -768 0
FLAG -864 -96 0
FLAG -1280 112 0
FLAG 2288 112 0
FLAG 2128 0 Vlow
FLAG 1248 -896 Vhigh
FLAG 784 1280 V5
FLAG 208 -496 ITHlow
FLAG -48 -576 ITHhigh
FLAG 2400 112 0
FLAG 640 2192 IMON
FLAG 640 -704 VFBhigh
FLAG -768 0 SW1
FLAG -528 -96 TG1
FLAG -528 96 BG1
FLAG -528 -192 BST1
FLAG -656 1024 0
FLAG -16 720 0
FLAG -464 512 0
FLAG -336 1104 0
FLAG 208 912 PWM2
FLAG -144 720 PWMEN
FLAG -96 512 DRVcc
FLAG -768 816 SW2
FLAG -528 720 TG2
FLAG -528 912 BG2
FLAG -528 624 BST2
FLAG -1280 928 0
FLAG -864 688 0
FLAG -752 592 Vhigh
FLAG -1248 816 Vlow
FLAG -656 1840 0
FLAG -16 1536 0
FLAG -464 1328 0
FLAG -336 1920 0
FLAG -144 1536 PWMEN
FLAG -96 1328 DRVcc
FLAG -768 1632 SW3
FLAG -528 1536 TG3
FLAG -528 1728 BG3
FLAG -528 1440 BST3
FLAG -1280 1744 0
FLAG -864 1504 0
FLAG -752 1408 Vhigh
FLAG -1248 1632 Vlow
FLAG 1504 1840 0
FLAG 864 1536 0
FLAG 1312 1328 0
FLAG 1184 1920 0
FLAG 992 1536 PWMEN
FLAG 960 1328 DRVcc
FLAG 1616 1632 SW4
FLAG 1376 1536 TG4
FLAG 1376 1728 BG4
FLAG 1376 1440 BST4
FLAG 2128 1744 0
FLAG 1712 1504 0
FLAG 1616 1408 Vhigh
FLAG 2096 1632 Vlow
FLAG 208 1728 PWM3
FLAG 624 1728 PWM4
FLAG 1504 1024 0
FLAG 864 720 0
FLAG 1312 512 0
FLAG 1184 1104 0
FLAG 992 720 PWMEN
FLAG 944 512 DRVcc
FLAG 1616 816 SW5
FLAG 1376 720 TG5
FLAG 1376 912 BG5
FLAG 1376 624 BST5
FLAG 2128 928 0
FLAG 1712 688 0
FLAG 1616 592 Vhigh
FLAG 2096 816 Vlow
FLAG 624 912 PWM5
FLAG 1504 208 0
FLAG 864 -96 0
FLAG 1312 -304 0
FLAG 1184 288 0
FLAG 992 -96 PWMEN
FLAG 944 -304 DRVcc
FLAG 1616 0 SW6
FLAG 1376 -96 TG6
FLAG 1376 96 BG6
FLAG 1376 -192 BST6
FLAG 2128 112 0
FLAG 1712 -128 0
FLAG 1616 -224 Vhigh
FLAG 624 96 PWM6
FLAG 640 2144 SS
FLAG -752 -224 Vhigh
FLAG 640 -496 VFBlow
FLAG -1248 0 Vlow
FLAG 624 -256 0
SYMBOL cap 112 -480 R0
SYMATTR InstName C1
SYMATTR Value 47p
SYMBOL cap 96 -512 R90
WINDOW 0 0 32 VBottom 2
WINDOW 3 32 32 VTop 2
SYMATTR InstName C2
SYMATTR Value .1µ
SYMBOL res 2160 -432 R0
SYMATTR InstName R1
SYMATTR Value 90.9K
SYMBOL PowerProducts\\LTC7060 -336 0 M0
SYMATTR InstName U2
SYMBOL NMOS -608 -176 M0
SYMATTR InstName M1
SYMATTR Value BSC123N08NS3
SYMBOL NMOS -608 16 M0
SYMATTR InstName M2
SYMATTR Value BSC110N06NS3
SYMBOL schottky -528 -320 M0
SYMATTR InstName D1
SYMATTR Value RBR2MM60A
SYMATTR Description Diode
SYMATTR Type diode
SYMBOL res 2256 -432 R0
SYMATTR InstName R2
SYMATTR Value 10K
SYMBOL res -32 -512 R0
SYMATTR InstName R3
SYMATTR Value 499
SYMBOL cap -144 -544 R0
SYMATTR InstName C3
SYMATTR Value 1n
SYMBOL cap -160 -592 R90
WINDOW 0 0 32 VBottom 2
WINDOW 3 32 32 VTop 2
SYMATTR InstName C4
SYMATTR Value .33µ
SYMBOL res -288 -576 R0
SYMATTR InstName R4
SYMATTR Value 499
SYMBOL res 1072 -880 R0
SYMATTR InstName R5
SYMATTR Value 499K
SYMBOL res 1072 -704 R0
SYMATTR InstName R6
SYMATTR Value 12.7K
SYMBOL cap 16 2192 R0
SYMATTR InstName C5
SYMATTR Value 4.7µ
SYMBOL cap 688 2208 R0
SYMATTR InstName C6
SYMATTR Value 100p
SYMBOL res 192 448 R90
WINDOW 0 0 56 VBottom 2
WINDOW 3 32 56 VTop 2
SYMATTR InstName R7
SYMATTR Value 45.3K
SYMBOL res 848 -880 R0
SYMATTR InstName R8
SYMATTR Value 3.01Meg
SYMBOL res 848 -704 R0
SYMATTR InstName R9
SYMATTR Value 48.7K
SYMBOL res 960 -880 R0
SYMATTR InstName R10
SYMATTR Value 210K
SYMBOL res 960 -704 R0
SYMATTR InstName R11
SYMATTR Value 10K
SYMBOL res 2048 -432 R0
SYMATTR InstName R12
SYMATTR Value 110K
SYMBOL res 1952 -432 R0
SYMATTR InstName R13
SYMATTR Value 10K
SYMBOL res 656 1296 R270
WINDOW 0 32 56 VTop 2
WINDOW 3 0 56 VBottom 2
SYMATTR InstName R14
SYMATTR Value 10K
SYMBOL res 224 2176 R90
WINDOW 0 0 56 VBottom 2
WINDOW 3 32 56 VTop 2
SYMATTR InstName R15
SYMATTR Value 51K
SYMBOL cap 672 -384 R0
SYMATTR InstName C7
SYMATTR Value 1µ
SYMBOL cap 912 2112 R0
SYMATTR InstName C8
SYMATTR Value 4.7µ
SYMBOL cap 672 -880 R0
SYMATTR InstName C9
SYMATTR Value 1µ
SYMBOL res 848 -912 R90
WINDOW 0 0 56 VBottom 2
WINDOW 3 32 56 VTop 2
SYMATTR InstName R17
SYMATTR Value 2.2
SYMBOL res 16 2128 R90
WINDOW 0 0 56 VBottom 2
WINDOW 3 32 56 VTop 2
SYMATTR InstName R18
SYMATTR Value 10K
SYMBOL res -96 2272 R180
WINDOW 0 36 76 Left 2
WINDOW 3 36 40 Left 2
SYMATTR InstName R19
SYMATTR Value 30.1K
SYMBOL res 784 -608 R90
WINDOW 0 0 56 VBottom 2
WINDOW 3 32 56 VTop 2
SYMATTR InstName R20
SYMATTR Value 37.4K
SYMBOL cap 0 -176 M0
SYMATTR InstName C10
SYMATTR Value 1µ
SYMBOL cap -368 -320 R90
WINDOW 0 0 32 VBottom 2
WINDOW 3 32 32 VTop 2
SYMATTR InstName C11
SYMATTR Value .22µ
SYMBOL res -208 -288 M270
WINDOW 0 32 56 VTop 2
WINDOW 3 0 56 VBottom 2
SYMATTR InstName R21
SYMATTR Value 10
SYMBOL cap -528 -192 M0
SYMATTR InstName C12
SYMATTR Value .22µ
SYMBOL res -64 176 M0
SYMATTR InstName R22
SYMATTR Value 0
SYMBOL ind -896 16 M270
WINDOW 0 32 56 VTop 2
WINDOW 3 5 56 VBottom 2
SYMATTR InstName L1
SYMATTR Value 6.8µ
SYMATTR SpiceLine Rser=1m
SYMBOL res -1184 -16 M90
WINDOW 0 0 56 VBottom 2
WINDOW 3 32 56 VTop 2
SYMATTR InstName R23
SYMATTR Value 1m
SYMBOL cap -1264 16 M0
WINDOW 3 40 31 Left 2
SYMATTR Value 22µ
SYMATTR InstName C13
SYMATTR SpiceLine Rser=2m
SYMBOL polcap 2272 16 R0
WINDOW 3 46 34 Left 2
SYMATTR Value 600µ
SYMATTR InstName C14
SYMATTR Description Capacitor
SYMATTR Type cap
SYMATTR SpiceLine Rser=0.01
SYMBOL res -848 32 M0
SYMATTR InstName R24
SYMATTR Value 16.9K
SYMBOL res -1024 32 M0
SYMATTR InstName R25
SYMATTR Value 1.5K
SYMBOL cap -848 -192 M0
WINDOW 123 46 58 Left 2
WINDOW 3 40 31 Left 2
WINDOW 0 44 3 Left 2
SYMATTR Value2 x2
SYMATTR Value 2.2µ
SYMATTR InstName C15
SYMATTR SpiceLine Rser=0.014
SYMBOL polcap 1184 -864 R0
WINDOW 3 40 31 Left 2
SYMATTR Value 400µ
SYMATTR InstName C16
SYMATTR SpiceLine Rser=0.04
SYMATTR Description Capacitor
SYMATTR Type cap
SYMBOL voltage 1312 -896 R0
WINDOW 123 0 0 Left 0
WINDOW 39 0 0 Left 0
SYMATTR InstName V1
SYMATTR Value 48
SYMBOL cap -896 304 R90
WINDOW 0 0 32 VBottom 2
WINDOW 3 32 32 VTop 2
SYMATTR InstName C17
SYMATTR Value .1µ
SYMBOL res -880 208 R90
WINDOW 0 0 56 VBottom 2
WINDOW 3 32 56 VTop 2
SYMATTR InstName R26
SYMATTR Value 1.69K
SYMBOL cap -1088 304 R90
WINDOW 0 0 32 VBottom 2
WINDOW 3 32 32 VTop 2
SYMATTR InstName C18
SYMATTR Value .1µ
SYMBOL res 2384 0 R0
SYMATTR InstName R27
SYMATTR Value .07
SYMBOL schottky 848 -416 R90
WINDOW 0 0 32 VBottom 2
WINDOW 3 32 32 VTop 2
SYMATTR InstName D7
SYMATTR Value RSX205L-30
SYMATTR Description Diode
SYMATTR Type diode
SYMBOL PowerProducts\\LTC7060 -336 816 M0
SYMATTR InstName U3
SYMBOL NMOS -608 640 M0
SYMATTR InstName M3
SYMATTR Value BSC123N08NS3
SYMBOL NMOS -608 832 M0
SYMATTR InstName M4
SYMATTR Value BSC110N06NS3
SYMBOL schottky -528 480 M0
SYMATTR InstName D2
SYMATTR Value RBR2MM60A
SYMATTR Description Diode
SYMATTR Type diode
SYMBOL cap 0 640 M0
SYMATTR InstName C19
SYMATTR Value 1µ
SYMBOL cap -368 496 R90
WINDOW 0 0 32 VBottom 2
WINDOW 3 32 32 VTop 2
SYMATTR InstName C20
SYMATTR Value .22µ
SYMBOL res -208 528 M270
WINDOW 0 32 56 VTop 2
WINDOW 3 0 56 VBottom 2
SYMATTR InstName R28
SYMATTR Value 10
SYMBOL cap -528 624 M0
SYMATTR InstName C21
SYMATTR Value .22µ
SYMBOL res -64 992 M0
SYMATTR InstName R29
SYMATTR Value 0
SYMBOL ind -896 832 M270
WINDOW 0 32 56 VTop 2
WINDOW 3 5 56 VBottom 2
SYMATTR InstName L2
SYMATTR Value 6.8µ
SYMATTR SpiceLine Rser=1m
SYMBOL res -1184 800 M90
WINDOW 0 0 56 VBottom 2
WINDOW 3 32 56 VTop 2
SYMATTR InstName R30
SYMATTR Value 1m
SYMBOL res -848 848 M0
SYMATTR InstName R31
SYMATTR Value 16.9K
SYMBOL res -1024 848 M0
SYMATTR InstName R32
SYMATTR Value 1.5K
SYMBOL cap -1264 832 M0
WINDOW 3 40 31 Left 2
SYMATTR Value 22µ
SYMATTR InstName C22
SYMATTR SpiceLine Rser=2m
SYMBOL cap -848 608 M0
WINDOW 123 45 57 Left 2
WINDOW 3 40 31 Left 2
WINDOW 0 42 3 Left 2
SYMATTR Value2 x2
SYMATTR Value 2.2µ
SYMATTR InstName C23
SYMATTR SpiceLine Rser=0.014
SYMBOL cap -1088 1120 R90
WINDOW 0 0 32 VBottom 2
WINDOW 3 32 32 VTop 2
SYMATTR InstName C24
SYMATTR Value .1µ
SYMBOL cap -896 1120 R90
WINDOW 0 0 32 VBottom 2
WINDOW 3 32 32 VTop 2
SYMATTR InstName C25
SYMATTR Value .1µ
SYMBOL res -880 1024 R90
WINDOW 0 0 56 VBottom 2
WINDOW 3 32 56 VTop 2
SYMATTR InstName R33
SYMATTR Value 1.69K
SYMBOL PowerProducts\\LTC7060 -336 1632 M0
SYMATTR InstName U4
SYMBOL NMOS -608 1456 M0
SYMATTR InstName M5
SYMATTR Value BSC123N08NS3
SYMBOL NMOS -608 1648 M0
SYMATTR InstName M6
SYMATTR Value BSC110N06NS3
SYMBOL schottky -528 1296 M0
SYMATTR InstName D3
SYMATTR Value RBR2MM60A
SYMATTR Description Diode
SYMATTR Type diode
SYMBOL cap 0 1456 M0
SYMATTR InstName C26
SYMATTR Value 1µ
SYMBOL cap -368 1312 R90
WINDOW 0 0 32 VBottom 2
WINDOW 3 32 32 VTop 2
SYMATTR InstName C27
SYMATTR Value .22µ
SYMBOL res -208 1344 M270
WINDOW 0 32 56 VTop 2
WINDOW 3 0 56 VBottom 2
SYMATTR InstName R34
SYMATTR Value 10
SYMBOL cap -528 1440 M0
SYMATTR InstName C28
SYMATTR Value .22µ
SYMBOL res -64 1808 M0
SYMATTR InstName R35
SYMATTR Value 0
SYMBOL ind -896 1648 M270
WINDOW 0 32 56 VTop 2
WINDOW 3 5 56 VBottom 2
SYMATTR InstName L3
SYMATTR Value 6.8µ
SYMATTR SpiceLine Rser=1m
SYMBOL res -1184 1616 M90
WINDOW 0 0 56 VBottom 2
WINDOW 3 32 56 VTop 2
SYMATTR InstName R36
SYMATTR Value 1m
SYMBOL res -848 1664 M0
SYMATTR InstName R37
SYMATTR Value 16.9K
SYMBOL res -1024 1664 M0
SYMATTR InstName R38
SYMATTR Value 1.5K
SYMBOL cap -1264 1648 M0
WINDOW 3 40 31 Left 2
SYMATTR Value 22µ
SYMATTR InstName C29
SYMATTR SpiceLine Rser=2m
SYMBOL cap -848 1424 M0
WINDOW 123 45 57 Left 2
WINDOW 3 40 31 Left 2
WINDOW 0 42 3 Left 2
SYMATTR Value2 x2
SYMATTR Value 2.2µ
SYMATTR InstName C30
SYMATTR SpiceLine Rser=0.014
SYMBOL cap -896 1936 R90
WINDOW 0 0 32 VBottom 2
WINDOW 3 32 32 VTop 2
SYMATTR InstName C31
SYMATTR Value .1µ
SYMBOL res -880 1840 R90
WINDOW 0 0 56 VBottom 2
WINDOW 3 32 56 VTop 2
SYMATTR InstName R39
SYMATTR Value 1.69K
SYMBOL cap -1088 1936 R90
WINDOW 0 0 32 VBottom 2
WINDOW 3 32 32 VTop 2
SYMATTR InstName C32
SYMATTR Value .1µ
SYMBOL PowerProducts\\LTC7060 1184 1632 R0
SYMATTR InstName U5
SYMBOL NMOS 1456 1456 R0
SYMATTR InstName M7
SYMATTR Value BSC123N08NS3
SYMBOL NMOS 1456 1648 R0
SYMATTR InstName M8
SYMATTR Value BSC110N06NS3
SYMBOL schottky 1376 1312 R0
SYMATTR InstName D4
SYMATTR Value RBR2MM60A
SYMATTR Description Diode
SYMATTR Type diode
SYMBOL cap 848 1456 R0
SYMATTR InstName C33
SYMATTR Value 1µ
SYMBOL cap 1216 1312 M90
WINDOW 0 0 32 VBottom 2
WINDOW 3 32 32 VTop 2
SYMATTR InstName C34
SYMATTR Value .22µ
SYMBOL res 1056 1344 R270
WINDOW 0 32 56 VTop 2
WINDOW 3 0 56 VBottom 2
SYMATTR InstName R40
SYMATTR Value 10
SYMBOL cap 1376 1440 R0
SYMATTR InstName C35
SYMATTR Value .22µ
SYMBOL res 912 1808 R0
SYMATTR InstName R41
SYMATTR Value 0
SYMBOL ind 1744 1648 R270
WINDOW 0 32 56 VTop 2
WINDOW 3 5 56 VBottom 2
SYMATTR InstName L4
SYMATTR Value 6.8µ
SYMATTR SpiceLine Rser=1m
SYMBOL res 2032 1616 R90
WINDOW 0 0 56 VBottom 2
WINDOW 3 32 56 VTop 2
SYMATTR InstName R42
SYMATTR Value 1m
SYMBOL res 1696 1664 R0
SYMATTR InstName R43
SYMATTR Value 16.9K
SYMBOL res 1872 1664 R0
SYMATTR InstName R44
SYMATTR Value 1.5K
SYMBOL cap 2112 1648 R0
WINDOW 3 40 31 Left 2
SYMATTR Value 22µ
SYMATTR InstName C36
SYMATTR SpiceLine Rser=2m
SYMBOL cap 1696 1424 R0
WINDOW 123 45 57 Left 2
WINDOW 3 40 31 Left 2
WINDOW 0 42 3 Left 2
SYMATTR Value2 x2
SYMATTR Value 2.2µ
SYMATTR InstName C37
SYMATTR SpiceLine Rser=0.014
SYMBOL cap 2016 1936 R90
WINDOW 0 0 32 VBottom 2
WINDOW 3 32 32 VTop 2
SYMATTR InstName C38
SYMATTR Value .1µ
SYMBOL cap 1824 1936 R90
WINDOW 0 0 32 VBottom 2
WINDOW 3 32 32 VTop 2
SYMATTR InstName C39
SYMATTR Value .1µ
SYMBOL res 1840 1840 R90
WINDOW 0 0 56 VBottom 2
WINDOW 3 32 56 VTop 2
SYMATTR InstName R45
SYMATTR Value 1.69K
SYMBOL PowerProducts\\LTC7060 1184 816 R0
SYMATTR InstName U6
SYMBOL NMOS 1456 640 R0
SYMATTR InstName M9
SYMATTR Value BSC123N08NS3
SYMBOL NMOS 1456 832 R0
SYMATTR InstName M10
SYMATTR Value BSC110N06NS3
SYMBOL schottky 1376 480 R0
SYMATTR InstName D5
SYMATTR Value RBR2MM60A
SYMATTR Description Diode
SYMATTR Type diode
SYMBOL cap 848 640 R0
SYMATTR InstName C40
SYMATTR Value 1µ
SYMBOL cap 1216 496 M90
WINDOW 0 0 32 VBottom 2
WINDOW 3 32 32 VTop 2
SYMATTR InstName C41
SYMATTR Value .22µ
SYMBOL res 1056 528 R270
WINDOW 0 32 56 VTop 2
WINDOW 3 0 56 VBottom 2
SYMATTR InstName R46
SYMATTR Value 10
SYMBOL cap 1376 624 R0
SYMATTR InstName C42
SYMATTR Value .22µ
SYMBOL res 912 992 R0
SYMATTR InstName R47
SYMATTR Value 0
SYMBOL ind 1744 832 R270
WINDOW 0 32 56 VTop 2
WINDOW 3 5 56 VBottom 2
SYMATTR InstName L5
SYMATTR Value 6.8µ
SYMATTR SpiceLine Rser=1m
SYMBOL res 2032 800 R90
WINDOW 0 0 56 VBottom 2
WINDOW 3 32 56 VTop 2
SYMATTR InstName R48
SYMATTR Value 1m
SYMBOL res 1696 848 R0
SYMATTR InstName R49
SYMATTR Value 16.9K
SYMBOL res 1872 848 R0
SYMATTR InstName R50
SYMATTR Value 1.5K
SYMBOL cap 2112 832 R0
WINDOW 3 40 31 Left 2
SYMATTR Value 22µ
SYMATTR InstName C43
SYMATTR SpiceLine Rser=2m
SYMBOL cap 1696 608 R0
WINDOW 123 45 57 Left 2
WINDOW 3 40 31 Left 2
WINDOW 0 42 3 Left 2
SYMATTR Value2 x2
SYMATTR Value 2.2µ
SYMATTR InstName C44
SYMATTR SpiceLine Rser=0.014
SYMBOL cap 1824 1120 R90
WINDOW 0 0 32 VBottom 2
WINDOW 3 32 32 VTop 2
SYMATTR InstName C45
SYMATTR Value .1µ
SYMBOL res 1840 1024 R90
WINDOW 0 0 56 VBottom 2
WINDOW 3 32 56 VTop 2
SYMATTR InstName R51
SYMATTR Value 1.69K
SYMBOL cap 2016 1120 R90
WINDOW 0 0 32 VBottom 2
WINDOW 3 32 32 VTop 2
SYMATTR InstName C46
SYMATTR Value .1µ
SYMBOL PowerProducts\\LTC7060 1184 0 R0
SYMATTR InstName U7
SYMBOL NMOS 1456 -176 R0
SYMATTR InstName M11
SYMATTR Value BSC123N08NS3
SYMBOL NMOS 1456 16 R0
SYMATTR InstName M12
SYMATTR Value BSC110N06NS3
SYMBOL schottky 1376 -336 R0
SYMATTR InstName D6
SYMATTR Value RBR2MM60A
SYMATTR Description Diode
SYMATTR Type diode
SYMBOL cap 848 -176 R0
SYMATTR InstName C47
SYMATTR Value 1µ
SYMBOL cap 1216 -320 M90
WINDOW 0 0 32 VBottom 2
WINDOW 3 32 32 VTop 2
SYMATTR InstName C48
SYMATTR Value .22µ
SYMBOL res 1056 -288 R270
WINDOW 0 32 56 VTop 2
WINDOW 3 0 56 VBottom 2
SYMATTR InstName R52
SYMATTR Value 10
SYMBOL cap 1376 -192 R0
SYMATTR InstName C49
SYMATTR Value .22µ
SYMBOL res 912 176 R0
SYMATTR InstName R53
SYMATTR Value 0
SYMBOL ind 1744 16 R270
WINDOW 0 32 56 VTop 2
WINDOW 3 5 56 VBottom 2
SYMATTR InstName L6
SYMATTR Value 6.8µ
SYMATTR SpiceLine Rser=1m
SYMBOL res 2032 -16 R90
WINDOW 0 0 56 VBottom 2
WINDOW 3 32 56 VTop 2
SYMATTR InstName R54
SYMATTR Value 1m
SYMBOL res 1696 32 R0
SYMATTR InstName R55
SYMATTR Value 16.9K
SYMBOL res 1872 32 R0
SYMATTR InstName R56
SYMATTR Value 1.5K
SYMBOL cap 2112 16 R0
WINDOW 3 40 31 Left 2
SYMATTR Value 22µ
SYMATTR InstName C50
SYMATTR SpiceLine Rser=2m
SYMBOL cap 1696 -208 R0
WINDOW 123 45 57 Left 2
WINDOW 3 40 31 Left 2
WINDOW 0 42 3 Left 2
SYMATTR Value2 x2
SYMATTR Value 2.2µ
SYMATTR InstName C51
SYMATTR SpiceLine Rser=0.014
SYMBOL cap 2016 304 R90
WINDOW 0 0 32 VBottom 2
WINDOW 3 32 32 VTop 2
SYMATTR InstName C52
SYMATTR Value .1µ
SYMBOL cap 1808 304 R90
WINDOW 0 0 32 VBottom 2
WINDOW 3 32 32 VTop 2
SYMATTR InstName C53
SYMATTR Value .1µ
SYMBOL res 1840 208 R90
WINDOW 0 0 56 VBottom 2
WINDOW 3 32 56 VTop 2
SYMATTR InstName R57
SYMATTR Value 1.69K
SYMBOL cap 800 2160 R0
SYMATTR InstName C54
SYMATTR Value 1n
SYMBOL LTC7871 416 656 R0
SYMATTR InstName U1
TEXT -1216 -744 Left 2 !.tran 2m startup
TEXT -184 -840 Left 2 ;Functions related to SCLK, SDI, \nSDO and CSB are not modeled
