Version 4
SHEET 1 2956 1024
WIRE -48 -928 -192 -928
WIRE 32 -928 -48 -928
WIRE -192 -912 -192 -928
WIRE -48 -896 -48 -928
WIRE -192 -816 -192 -832
WIRE -48 -816 -48 -832
WIRE 1552 -736 -1152 -736
WIRE 1808 -640 1808 -688
WIRE -1424 -624 -1488 -624
WIRE -1344 -624 -1424 -624
WIRE -1232 -624 -1344 -624
WIRE -1152 -624 -1152 -736
WIRE -1152 -624 -1232 -624
WIRE -1104 -624 -1152 -624
WIRE -960 -624 -1024 -624
WIRE 32 -624 32 -928
WIRE 32 -624 -672 -624
WIRE 912 -624 32 -624
WIRE 1424 -624 1200 -624
WIRE 1552 -624 1552 -736
WIRE 1552 -624 1504 -624
WIRE -1488 -608 -1488 -624
WIRE -1344 -608 -1344 -624
WIRE -1232 -608 -1232 -624
WIRE -1056 -528 -1104 -528
WIRE -960 -528 -1056 -528
WIRE -496 -528 -672 -528
WIRE -64 -528 -496 -528
WIRE 544 -528 -64 -528
WIRE 912 -528 544 -528
WIRE 1296 -528 1200 -528
WIRE 1600 -528 1296 -528
WIRE 1664 -528 1600 -528
WIRE 1776 -528 1744 -528
WIRE 1808 -528 1808 -560
WIRE 1808 -528 1776 -528
WIRE 1888 -528 1808 -528
WIRE -1680 -512 -1680 -560
WIRE -1488 -512 -1488 -528
WIRE -1344 -512 -1344 -544
WIRE -1232 -512 -1232 -544
WIRE -64 -512 -64 -528
WIRE 1808 -496 1808 -528
WIRE 1888 -496 1888 -528
WIRE 128 -464 128 -480
WIRE -960 -432 -1056 -432
WIRE -608 -432 -672 -432
WIRE -592 -432 -608 -432
WIRE -496 -432 -496 -528
WIRE -496 -432 -512 -432
WIRE 912 -432 848 -432
WIRE 1296 -432 1200 -432
WIRE -64 -416 -64 -432
WIRE -1680 -400 -1680 -432
WIRE -1584 -400 -1680 -400
WIRE -1312 -400 -1584 -400
WIRE -1280 -400 -1312 -400
WIRE -1168 -400 -1200 -400
WIRE -1104 -400 -1104 -528
WIRE -1104 -400 -1168 -400
WIRE 1808 -400 1808 -416
WIRE 1888 -400 1888 -432
WIRE 1888 -400 1808 -400
WIRE 1808 -384 1808 -400
WIRE -1680 -368 -1680 -400
WIRE -1584 -368 -1584 -400
WIRE -608 -368 -608 -432
WIRE 128 -368 128 -400
WIRE 128 -368 -608 -368
WIRE 208 -368 128 -368
WIRE 848 -368 848 -432
WIRE 848 -368 208 -368
WIRE -960 -336 -1008 -336
WIRE -352 -336 -672 -336
WIRE 912 -336 656 -336
WIRE 1248 -336 1200 -336
WIRE -160 -304 -320 -304
WIRE 576 -304 416 -304
WIRE -1680 -272 -1680 -288
WIRE -1584 -272 -1584 -304
WIRE -1584 -272 -1680 -272
WIRE -160 -272 -160 -304
WIRE 32 -272 32 -624
WIRE 128 -272 128 -368
WIRE 416 -272 416 -304
WIRE -1680 -256 -1680 -272
WIRE -1424 -240 -1424 -624
WIRE -1008 -240 -1008 -336
WIRE -960 -240 -1008 -240
WIRE -608 -240 -608 -368
WIRE -608 -240 -672 -240
WIRE 848 -240 848 -368
WIRE 912 -240 848 -240
WIRE 1248 -240 1248 -336
WIRE 1248 -240 1200 -240
WIRE -608 -208 -608 -240
WIRE 848 -208 848 -240
WIRE -1008 -160 -1008 -240
WIRE 1248 -160 1248 -240
WIRE -608 -112 -608 -144
WIRE -352 -112 -352 -336
WIRE -272 -112 -352 -112
WIRE 656 -112 656 -336
WIRE 656 -112 528 -112
WIRE 848 -112 848 -144
WIRE -1056 -64 -1056 -432
WIRE -320 -64 -320 -304
WIRE -320 -64 -1056 -64
WIRE 576 -64 576 -304
WIRE 1296 -64 1296 -432
WIRE 1296 -64 576 -64
WIRE -1168 -16 -1168 -400
WIRE -272 -16 -1168 -16
WIRE 1600 -16 1600 -528
WIRE 1600 -16 528 -16
WIRE -1312 80 -1312 -400
WIRE -272 80 -1312 80
WIRE 1776 80 1776 -528
WIRE 1776 80 528 80
WIRE -592 176 -688 176
WIRE -272 176 -592 176
WIRE 608 176 528 176
WIRE -592 192 -592 176
WIRE -592 272 -592 256
WIRE -272 272 -592 272
WIRE 544 272 544 -528
WIRE 544 272 528 272
WIRE -592 288 -592 272
WIRE -592 368 -592 352
WIRE -272 368 -592 368
WIRE -1424 464 -1424 -160
WIRE -272 464 -1424 464
WIRE -1424 480 -1424 464
WIRE -272 560 -288 560
WIRE -1424 576 -1424 560
WIRE -112 832 -112 816
WIRE -16 832 -16 816
WIRE 176 832 176 816
WIRE 368 832 368 816
WIRE 544 832 544 272
WIRE 544 832 368 832
WIRE 272 848 272 816
WIRE -112 928 -112 912
WIRE -16 928 -16 912
WIRE 272 928 272 912
WIRE -688 960 -688 176
WIRE 608 960 608 176
WIRE 608 960 -688 960
FLAG 176 832 0
FLAG -192 -816 0
FLAG -192 -928 IN
FLAG -1424 576 0
FLAG -288 560 0
FLAG -112 928 0
FLAG -16 928 0
FLAG 272 928 0
FLAG -64 -416 0
FLAG -1232 -512 0
FLAG -1344 -512 0
FLAG -1488 -512 0
FLAG -1488 -624 OUT1
FLAG -1008 -160 0
FLAG -48 -816 0
FLAG -608 -112 0
FLAG 128 -480 0
FLAG 1248 -160 0
FLAG 848 -112 0
FLAG 1296 -528 Isns2
FLAG -1056 -528 Isns1
FLAG 1808 -384 0
FLAG 208 -368 Vcc
FLAG 1808 -688 Vcc
FLAG -1680 -256 0
FLAG -1680 -560 Vcc
SYMBOL voltage -192 -928 R0
SYMATTR InstName V1
SYMATTR Value 12
SYMBOL res -1440 -256 R0
SYMATTR InstName R2
SYMATTR Value 10K
SYMBOL res -1440 464 R0
SYMATTR InstName R3
SYMATTR Value 10K
SYMBOL cap -608 288 R0
WINDOW 39 25 62 Left 2
WINDOW 3 42 35 Left 2
SYMATTR SpiceLine Rser=280 Rpar=10K
SYMATTR Value 3300p
SYMATTR InstName C5
SYMBOL PowerProducts\\LTC3861 128 272 R0
SYMATTR InstName U2
SYMBOL cap -608 192 R0
WINDOW 39 24 63 Left 2
WINDOW 3 35 34 Left 2
SYMATTR SpiceLine Rser=5.9K Cpar=100p
SYMATTR Value 4700p
SYMATTR InstName C8
SYMBOL res -128 816 R0
SYMATTR InstName R5
SYMATTR Value 59K
SYMBOL res -32 816 R0
SYMATTR InstName R6
SYMATTR Value 48.7k
SYMBOL cap 256 848 R0
SYMATTR InstName C9
SYMATTR Value 100p
SYMBOL voltage -64 -528 R0
SYMATTR InstName V2
SYMATTR Value 5
SYMBOL cap -1216 -608 M0
WINDOW 123 26 65 Left 2
WINDOW 3 41 36 Left 2
SYMATTR Value2 X2
SYMATTR Value 100µ
SYMATTR InstName C10
SYMATTR SpiceLine Rser=10m
SYMBOL cap -1328 -608 M0
WINDOW 123 21 69 Left 2
WINDOW 3 44 37 Left 2
SYMATTR Value2 X2
SYMATTR Value 470µ
SYMATTR InstName C11
SYMBOL ind -1008 -608 M270
WINDOW 0 32 56 VTop 2
WINDOW 3 5 56 VBottom 2
SYMATTR InstName L3
SYMATTR Value 150n
SYMATTR SpiceLine Rser=.74m Rpar=5K
SYMBOL res -1472 -624 M0
SYMATTR InstName Rload1
SYMATTR Value 20m
SYMBOL LTC7051 -816 -432 M0
SYMATTR InstName U4
SYMBOL cap -64 -896 R0
WINDOW 0 42 13 Left 2
WINDOW 3 44 52 Left 2
WINDOW 123 45 73 Left 2
SYMATTR InstName C12
SYMATTR Value 10µ
SYMATTR Value2 X10
SYMBOL cap -624 -208 R0
SYMATTR InstName C13
SYMATTR Value 1µ
SYMBOL res -496 -448 R90
WINDOW 0 0 56 VBottom 2
WINDOW 3 32 56 VTop 2
SYMATTR InstName R7
SYMATTR Value 1
SYMBOL cap 112 -464 R0
SYMATTR InstName C14
SYMATTR Value 4.7µ
SYMBOL ind 1408 -608 R270
WINDOW 0 32 56 VTop 2
WINDOW 3 5 56 VBottom 2
SYMATTR InstName L4
SYMATTR Value 150n
SYMATTR SpiceLine Rser=.74m Rpar=5K
SYMBOL LTC7051 1056 -432 R0
SYMATTR InstName U5
SYMBOL cap 864 -208 M0
SYMATTR InstName C17
SYMATTR Value 1µ
SYMBOL res 1792 -656 R0
SYMATTR InstName R8
SYMATTR Value 2.61k
SYMBOL res -1696 -528 R0
SYMATTR InstName R9
SYMATTR Value 2.61k
SYMBOL res 1792 -512 R0
SYMATTR InstName R10
SYMATTR Value 1k
SYMBOL res 1760 -544 R90
WINDOW 0 0 56 VBottom 2
WINDOW 3 32 56 VTop 2
SYMATTR InstName R11
SYMATTR Value 50
SYMBOL res -1184 -416 R90
WINDOW 0 0 56 VBottom 2
WINDOW 3 32 56 VTop 2
SYMATTR InstName R12
SYMATTR Value 50
SYMBOL res -1696 -384 R0
SYMATTR InstName R13
SYMATTR Value 1k
SYMBOL cap 1872 -496 R0
SYMATTR InstName C1
SYMATTR Value 100n
SYMBOL cap -1600 -368 R0
SYMATTR InstName C2
SYMATTR Value 100n
TEXT 32 1000 Left 2 !.tran 1m startup
