Version 4
SHEET 1 4148 1720
WIRE 848 -384 848 -400
WIRE 752 -352 432 -352
WIRE 432 -336 432 -352
WIRE 848 -304 848 -320
WIRE 848 -304 656 -304
WIRE 1232 -304 848 -304
WIRE 656 -272 656 -304
WIRE 1232 -272 1232 -304
WIRE 432 -240 432 -256
WIRE 752 -240 752 -352
WIRE 848 -240 848 -304
WIRE 944 -240 944 -256
WIRE 1040 -240 1040 -256
WIRE 1136 -240 1136 -256
WIRE 656 -160 656 -208
WIRE 688 -160 656 -160
WIRE 1232 -160 1232 -208
WIRE 1232 -160 1200 -160
WIRE 656 -144 656 -160
WIRE 1232 -144 1232 -160
WIRE 240 -64 160 -64
WIRE 320 -64 240 -64
WIRE 352 -64 320 -64
WIRE 480 -64 432 -64
WIRE 656 -64 656 -80
WIRE 656 -64 480 -64
WIRE 688 -64 656 -64
WIRE 1232 -64 1232 -80
WIRE 1232 -64 1200 -64
WIRE 1408 -64 1232 -64
WIRE 1456 -64 1408 -64
WIRE 1568 -64 1536 -64
WIRE 1616 -64 1568 -64
WIRE 1712 -64 1616 -64
WIRE 160 -48 160 -64
WIRE 240 -48 240 -64
WIRE 1616 -48 1616 -64
WIRE 1712 -48 1712 -64
WIRE 480 32 480 -64
WIRE 528 32 480 32
WIRE 656 32 608 32
WIRE 688 32 656 32
WIRE 1232 32 1200 32
WIRE 1296 32 1232 32
WIRE 1408 32 1408 -64
WIRE 1408 32 1376 32
WIRE 160 48 160 32
WIRE 240 48 240 16
WIRE 656 48 656 32
WIRE 1232 48 1232 32
WIRE 1616 48 1616 16
WIRE 1712 48 1712 32
WIRE 320 128 320 -64
WIRE 656 128 656 112
WIRE 656 128 320 128
WIRE 688 128 656 128
WIRE 1232 128 1232 112
WIRE 1232 128 1200 128
WIRE 1568 128 1568 -64
WIRE 1568 128 1232 128
WIRE 320 224 320 128
WIRE 688 224 320 224
WIRE 1568 224 1568 128
WIRE 1568 224 1200 224
WIRE 688 320 656 320
WIRE 1232 320 1200 320
WIRE 592 416 560 416
WIRE 688 416 656 416
WIRE 1232 416 1200 416
WIRE 1328 416 1296 416
WIRE 592 512 560 512
WIRE 688 512 656 512
WIRE 1232 512 1200 512
WIRE 1328 512 1296 512
WIRE 512 608 480 608
WIRE 656 608 592 608
WIRE 688 608 656 608
WIRE 1280 608 1200 608
WIRE 1344 608 1280 608
WIRE 1456 608 1424 608
WIRE 1280 688 1280 608
WIRE 416 704 384 704
WIRE 544 704 496 704
WIRE 688 704 544 704
WIRE 544 752 544 704
WIRE 656 752 656 608
WIRE 416 880 384 880
WIRE 544 880 544 832
WIRE 544 880 480 880
WIRE 656 880 656 832
WIRE 656 880 544 880
WIRE 848 880 848 864
WIRE 848 880 656 880
WIRE 1280 880 1280 768
WIRE 1280 880 848 880
WIRE 752 896 752 864
WIRE 1040 896 1040 864
WIRE 1136 896 1136 864
WIRE 656 992 640 992
WIRE 752 992 752 976
WIRE 752 992 720 992
WIRE 944 992 944 864
WIRE 944 992 752 992
WIRE 1040 992 1040 976
WIRE 1040 992 944 992
WIRE 1136 992 1136 976
WIRE 1136 992 1040 992
FLAG 944 -256 0
FLAG 1040 -256 0
FLAG 848 -400 0
FLAG 240 48 0
FLAG 160 48 0
FLAG 160 -64 OUT1
FLAG 432 -352 IN
FLAG 432 -240 0
FLAG 1616 48 0
FLAG 1712 48 0
FLAG 1712 -64 OUT0
FLAG 1136 -256 0
FLAG 1232 320 0
FLAG 656 320 0
FLAG 1328 416 0
FLAG 1328 512 0
FLAG 560 416 0
FLAG 560 512 0
FLAG 640 992 0
FLAG 1456 608 0
FLAG 480 608 0
FLAG 384 704 0
FLAG 384 880 0
SYMBOL voltage 432 -352 M0
WINDOW 123 0 0 Left 2
WINDOW 39 0 0 Left 2
SYMATTR InstName V1
SYMATTR Value 12
SYMBOL cap 832 -384 R0
SYMATTR InstName C1
SYMATTR Value 1µ
SYMBOL cap 672 -80 R180
WINDOW 0 24 56 Left 2
WINDOW 3 24 8 Left 2
SYMATTR InstName C2
SYMATTR Value .1µ
SYMBOL schottky 672 -272 M0
SYMATTR Value CMDSH2-3
SYMATTR InstName D1
SYMATTR Description Diode
SYMATTR Type diode
SYMBOL cap 672 48 M0
SYMATTR InstName C3
SYMATTR Value .22µ
SYMBOL res 512 48 R270
WINDOW 0 32 56 VTop 2
WINDOW 3 0 56 VBottom 2
SYMATTR InstName R1
SYMATTR Value 931
SYMBOL cap 224 -48 R0
WINDOW 123 28 56 Left 2
WINDOW 3 37 32 Left 2
SYMATTR Value2 x2
SYMATTR Value 330µ
SYMATTR InstName C5
SYMATTR SpiceLine Rser=5m
SYMBOL res 144 -64 R0
SYMATTR InstName R2
SYMATTR Value .05
SYMBOL ind 1440 -48 R270
WINDOW 0 32 56 VTop 2
WINDOW 3 5 56 VBottom 2
WINDOW 39 -51 49 VTop 2
SYMATTR InstName L1
SYMATTR Value .33µ
SYMATTR SpiceLine Rser=.32m
SYMBOL schottky 1216 -272 R0
SYMATTR Value CMDSH2-3
SYMATTR InstName D2
SYMATTR Description Diode
SYMATTR Type diode
SYMBOL cap 1216 48 R0
SYMATTR InstName C8
SYMATTR Value .22µ
SYMBOL cap 1600 -48 R0
WINDOW 123 25 59 Left 2
WINDOW 3 35 34 Left 2
SYMATTR Value2 x2
SYMATTR Value 330µ
SYMATTR InstName C9
SYMATTR SpiceLine Rser=5m
SYMBOL res 1696 -64 R0
SYMATTR InstName R12
SYMATTR Value .06
SYMBOL ind 448 -48 M270
WINDOW 0 32 56 VTop 2
WINDOW 3 5 56 VBottom 2
WINDOW 39 -51 49 VTop 2
SYMATTR InstName L2
SYMATTR Value .33µ
SYMATTR SpiceLine Rser=.32m
SYMBOL LTC7132 944 224 R0
SYMATTR InstName U1
SYMATTR Description Dual Output Polyphase Step-Down DC/DC Controller with Sub-Milliohm DCR Sensing and Digital Power System Management\n\nNote: SDA, SCL, _Alert, Share_clk, WP, GPIOs, ASEL, TSNSs are not modeled
SYMBOL cap 1216 -80 M180
WINDOW 0 24 56 Left 2
WINDOW 3 24 8 Left 2
SYMATTR InstName C7
SYMATTR Value .1µ
SYMBOL res 1280 48 R270
WINDOW 0 32 56 VTop 2
WINDOW 3 0 56 VBottom 2
SYMATTR InstName R3
SYMATTR Value 931
SYMBOL cap 1232 400 M90
WINDOW 0 0 32 VBottom 2
WINDOW 3 32 32 VTop 2
SYMATTR InstName C4
SYMATTR Value 220p
SYMBOL cap 1232 496 M90
WINDOW 0 0 32 VBottom 2
WINDOW 3 32 32 VTop 2
SYMATTR InstName C6
SYMATTR Value 4700p
SYMBOL cap 656 400 R90
WINDOW 0 0 32 VBottom 2
WINDOW 3 32 32 VTop 2
SYMATTR InstName C10
SYMATTR Value 220p
SYMBOL cap 656 496 R90
WINDOW 0 0 32 VBottom 2
WINDOW 3 32 32 VTop 2
SYMATTR InstName C11
SYMATTR Value 2200p
SYMBOL res 736 880 R0
SYMATTR InstName R4
SYMATTR Value 10K
SYMBOL res 1120 880 R0
SYMATTR InstName R5
SYMATTR Value 10K
SYMBOL res 1024 880 R0
SYMATTR InstName R6
SYMATTR Value 4.99K
SYMBOL cap 720 976 R90
WINDOW 0 0 32 VBottom 2
WINDOW 3 32 32 VTop 2
SYMATTR InstName C12
SYMATTR Value 1µ
SYMBOL res 1328 624 R270
WINDOW 0 32 56 VTop 2
WINDOW 3 0 56 VBottom 2
SYMATTR InstName R7
SYMATTR Value 17.8K
SYMBOL res 1296 784 R180
WINDOW 0 -9 75 Right 2
WINDOW 3 -9 32 Right 2
SYMATTR InstName R8
SYMATTR Value 20K
SYMBOL res 608 592 R90
WINDOW 0 0 56 VBottom 2
WINDOW 3 32 56 VTop 2
SYMATTR InstName R9
SYMATTR Value 7.32K
SYMBOL res 672 848 R180
WINDOW 0 36 76 Left 2
WINDOW 3 36 40 Left 2
SYMATTR InstName R10
SYMATTR Value 24.9K
SYMBOL res 400 720 R270
WINDOW 0 32 56 VTop 2
WINDOW 3 0 56 VBottom 2
SYMATTR InstName R11
SYMATTR Value 11.3K
SYMBOL res 560 848 R180
WINDOW 0 36 76 Left 2
WINDOW 3 36 40 Left 2
SYMATTR InstName R13
SYMATTR Value 24.9K
SYMBOL cap 480 864 R90
WINDOW 0 0 32 VBottom 2
WINDOW 3 32 32 VTop 2
SYMATTR InstName C13
SYMATTR Value 1µ
TEXT 1480 744 Left 2 !.tran  1.2m startup
TEXT 1792 -240 Left 2 ;Please read the following notes carefully since the model behaves differently from the user \ninterface for the LTC7132.\n \n(1) PMBus communication and memory address related functions and pins are not modeled.\n \n(2) Changes to parameter values while the simulation is running will not take effect unless the\nsimulation is stopped and restarted. This is different from the way the part operates which will\nrespond to the changes while running.  \n \n(3) Share_clk is not modeled. The default time reference of LTspice is used as the common time \nbase for all time-related parameters.\n \n(4)The following parameters can be defined by right-clicking on the LTC7132 symbol.\nThe nomenclature used here differs from the one in the data sheet. If any value of these parameters is\nset beyond the scope described in the data sheet, the resulting simulation will not be meaningful.\n \n     VIN_ON & VIN_OFF -- in volts, set the unit start/stop input voltages; \n     Freq -- in Hz, sets switching frequency as one of values of 250k, 350k, 425k, 500k, 575k, 650k, \n                 750k,1000k. Freq_cfg pin needs to float or short to VDD25, to make the value be in effect;\n     PHs_0 & PHs_1 -- in degree, set phase angle related to SYNC signal. \n                Certain combinations are restricted as in data sheet. Phase_cfg pin needs to float or \n                short to VDD25, to make the value be in effect;  \n     Ton0_delay & Ton0_rise; Ton1_delay & Ton1_rise -- in sec, set delay and soft-start timers for \n                channel0 and channel1. Initialization time is not modeled; \n     Toff0_delay & Toff0_fall; Toff1_delay & Toff1_fall -- in sec, set delay and soft-off timers for \n                channel0 and channel1;\n     Vout_0 & Vout_1 -- in volt, set output voltages respectively. Vout_cfgn pin needs to float or \n                short to VDD25, to make the value be in effect;\n     Vout0_range & Vout1_range -- set maximum output range, with value 0\n                for 4.096V (CH0) and 5.5V (CH1), value 1 for 2.75V;\n     Ilim0_range & Ilim1_range -- set maximum sensed peak current range, with value 0\n               for low (45.14mV), and 1 for high (81.25mV);\n     OC_limit0 & OC_limit1 -- set ratio of peak current limit to the maximum value defined by Ilimit_range. \n               It must be one of values: 0.5, 0.572, 0.642, 0.714, 0.786, 0.858, 0.928, 1;\n     Mode_II -- sets light load operation mode: 0 for discontinuous, 1 for forced continuous;\n     Fault_response -- sets the response mode of the LTC7132 to occuring faults:\n              0 for ignore, 1 for latch up, 2 for Hiccup after Retry_delay time;\n     Retry_delay -- in sec, sets the timer before the LTC7132 turns on after a fault;\n     gm -- transconductance of the error amplifier. It must be between 1m mho and 5.73m mho;\n     Rth -- Compensation resistor. It must be set between 0k ohms and 62k ohms;\n     LowDCR -- set to 1 if DCR is below 1m ohm and make RC = L/(5*DCR), set to 0 if DCR is above \n               1m ohm and make RC = L/DCR.
