Version 4
SHEET 1 6140 3124
WIRE 608 -192 496 -192
WIRE 624 -192 608 -192
WIRE 1136 -192 1008 -192
WIRE 1168 -192 1136 -192
WIRE 1280 -192 1248 -192
WIRE 1376 -192 1280 -192
WIRE 496 -176 496 -192
WIRE 1376 -176 1376 -192
WIRE 1040 -144 1008 -144
WIRE 1136 -144 1136 -192
WIRE 1136 -144 1104 -144
WIRE 608 -112 608 -192
WIRE 624 -112 608 -112
WIRE 1040 -112 1008 -112
WIRE 1280 -112 1280 -192
WIRE 1280 -112 1040 -112
WIRE 1280 -96 1280 -112
WIRE 496 -80 496 -96
WIRE 1376 -80 1376 -96
WIRE 624 -32 608 -32
WIRE 1040 -32 1040 -112
WIRE 1040 -32 1008 -32
WIRE 1280 16 1280 -32
WIRE 624 48 608 48
WIRE 1072 48 1008 48
WIRE 1072 128 1072 48
WIRE 1072 128 1008 128
WIRE 1072 144 1072 128
WIRE 1072 224 1072 208
WIRE 624 288 608 288
WIRE 1024 288 1008 288
WIRE 688 400 688 384
WIRE 816 400 816 384
FLAG 496 -80 0
FLAG 496 -192 IN
FLAG 1376 -192 OUT
FLAG 608 -32 0
FLAG 608 288 0
FLAG 1376 -80 0
FLAG 1280 16 0
FLAG 688 400 0
FLAG 816 400 0
FLAG 1024 288 0
FLAG 1072 224 0
FLAG 608 48 0
SYMBOL ind 1152 -176 R270
WINDOW 0 32 56 VTop 2
WINDOW 3 5 56 VBottom 2
WINDOW 39 -47 55 VTop 2
SYMATTR InstName L1
SYMATTR Value 18µ
SYMATTR SpiceLine Rser=5m
SYMBOL cap 1264 -96 R0
WINDOW 39 24 84 Left 2
SYMATTR SpiceLine Rser=15m
SYMATTR Value 100µ
SYMATTR InstName C1
SYMBOL voltage 496 -192 R0
SYMATTR InstName V1
SYMATTR Value 50
SYMBOL res 1360 -192 R0
SYMATTR InstName Rload
SYMATTR Value 4.99
SYMBOL LTC7103 816 48 R0
SYMATTR InstName U1
SYMBOL cap 1056 144 R0
SYMATTR Value 1µ
SYMATTR InstName C6
SYMBOL cap 1104 -160 R90
WINDOW 0 16 1 VBottom 2
WINDOW 3 16 -7 VTop 2
SYMATTR InstName C2
SYMATTR Value 0.1µ
TEXT 1152 336 Left 2 !.tran 1.8m startup
