Version 4
SHEET 1 904 952
WIRE -1040 -688 -1136 -688
WIRE -928 -688 -1040 -688
WIRE -832 -688 -928 -688
WIRE -272 -688 -832 -688
WIRE 288 -688 -272 -688
WIRE -1136 -672 -1136 -688
WIRE -1040 -672 -1040 -688
WIRE -928 -672 -928 -688
WIRE -272 -640 -272 -688
WIRE -1040 -592 -1040 -608
WIRE -928 -592 -928 -608
WIRE -928 -592 -1040 -592
WIRE -1136 -576 -1136 -592
WIRE -928 -576 -928 -592
WIRE -832 -576 -832 -688
WIRE -784 -576 -832 -576
WIRE 288 -576 288 -688
WIRE 288 -576 240 -576
WIRE -1040 -480 -1136 -480
WIRE -880 -480 -1040 -480
WIRE -784 -480 -880 -480
WIRE 336 -480 240 -480
WIRE 400 -480 336 -480
WIRE 544 -480 400 -480
WIRE -1136 -464 -1136 -480
WIRE -1040 -464 -1040 -480
WIRE 400 -464 400 -480
WIRE 544 -448 544 -480
WIRE -880 -384 -880 -480
WIRE -784 -384 -880 -384
WIRE 336 -384 336 -480
WIRE 336 -384 240 -384
WIRE 400 -352 400 -400
WIRE 400 -352 352 -352
WIRE 400 -336 400 -352
WIRE 544 -336 544 -368
WIRE -1040 -304 -1040 -400
WIRE -928 -304 -1040 -304
WIRE -1136 -288 -1136 -384
WIRE -1040 -288 -1040 -304
WIRE -928 -288 -928 -304
WIRE -784 -288 -928 -288
WIRE 352 -288 352 -352
WIRE 352 -288 240 -288
WIRE -960 -192 -992 -192
WIRE -784 -192 -880 -192
WIRE 320 -192 240 -192
WIRE 432 -192 400 -192
WIRE -784 -96 -800 -96
WIRE 256 -96 240 -96
WIRE -800 0 -800 -96
WIRE -784 0 -800 0
WIRE 256 0 256 -96
WIRE 256 0 240 0
WIRE -912 192 -960 192
WIRE -784 192 -848 192
WIRE 320 192 240 192
WIRE 416 192 384 192
WIRE -832 368 -832 -576
WIRE -784 368 -832 368
WIRE 288 368 288 -576
WIRE 288 368 240 368
WIRE -976 464 -1072 464
WIRE -832 464 -976 464
WIRE -784 464 -832 464
WIRE 288 464 240 464
WIRE 400 464 288 464
WIRE 496 464 400 464
WIRE -1072 480 -1072 464
WIRE -976 480 -976 464
WIRE 400 480 400 464
WIRE 496 480 496 464
WIRE -832 560 -832 464
WIRE -784 560 -832 560
WIRE 288 560 288 464
WIRE 288 560 240 560
WIRE -1072 576 -1072 560
WIRE -976 576 -976 544
WIRE 400 576 400 544
WIRE 496 576 496 560
WIRE -912 656 -944 656
WIRE -784 656 -832 656
WIRE 272 656 240 656
WIRE 384 656 352 656
WIRE 176 832 176 816
WIRE -384 848 -384 816
WIRE -160 848 -160 816
WIRE -384 928 -384 912
WIRE -160 928 -160 912
FLAG -1136 -688 IN
FLAG 176 832 0
FLAG 400 -336 0
FLAG 544 -336 0
FLAG 432 -192 0
FLAG 416 192 0
FLAG -1040 -288 0
FLAG -992 -192 0
FLAG -960 192 0
FLAG 400 576 0
FLAG 496 576 0
FLAG 384 656 0
FLAG -384 928 0
FLAG -160 928 0
FLAG -976 576 0
FLAG -1072 576 0
FLAG -944 656 0
FLAG 544 -480 OUT3
FLAG -1072 464 OUT1
FLAG 496 464 OUT2
FLAG -928 -576 0
FLAG -1136 -288 0
FLAG -1136 -480 OUT0
FLAG -1136 -576 0
SYMBOL voltage -1136 -688 R0
SYMATTR InstName V1
SYMATTR Value 12
SYMBOL cap 384 -464 R0
WINDOW 0 39 8 Left 2
WINDOW 3 31 56 Left 2
WINDOW 123 34 80 Left 2
WINDOW 39 35 107 Left 2
SYMATTR InstName C1
SYMATTR Value 100µ
SYMATTR Value2 x2
SYMATTR SpiceLine Rser=3m
SYMBOL res 528 -464 R0
SYMATTR InstName R1
SYMATTR Value 0.075
SYMBOL res 416 -208 R90
WINDOW 0 0 56 VBottom 2
WINDOW 3 32 56 VTop 2
SYMATTR InstName R2
SYMATTR Value 121k
SYMBOL cap 384 176 R90
WINDOW 0 0 32 VBottom 2
WINDOW 3 32 32 VTop 2
SYMATTR InstName C2
SYMATTR Value 1n
SYMBOL cap -1024 -400 R180
WINDOW 0 -32 57 Left 2
WINDOW 3 -59 11 Left 2
WINDOW 123 -41 -20 Left 2
WINDOW 39 -106 -52 Left 2
SYMATTR InstName C3
SYMATTR Value 100µ
SYMATTR Value2 x2
SYMATTR SpiceLine Rser=3m
SYMBOL res -864 -208 R90
WINDOW 0 0 56 VBottom 2
WINDOW 3 32 56 VTop 2
SYMATTR InstName R4
SYMATTR Value 90.9k
SYMBOL cap -848 176 R90
WINDOW 0 0 32 VBottom 2
WINDOW 3 32 32 VTop 2
SYMATTR InstName C4
SYMATTR Value 1n
SYMBOL cap 384 480 R0
WINDOW 123 44 63 Left 2
WINDOW 0 42 7 Left 2
WINDOW 3 43 36 Left 2
SYMATTR Value2 x2
SYMATTR InstName C5
SYMATTR Value 47µ
SYMBOL res 480 464 R0
SYMATTR InstName R5
SYMATTR Value 0.36
SYMBOL res 368 640 R90
WINDOW 0 0 56 VBottom 2
WINDOW 3 32 56 VTop 2
SYMATTR InstName R6
SYMATTR Value 30.1K
SYMBOL cap -400 848 R0
WINDOW 0 44 15 Left 2
WINDOW 3 45 46 Left 2
SYMATTR InstName C6
SYMATTR Value 220p
SYMBOL cap -176 848 R0
WINDOW 0 39 15 Left 2
WINDOW 3 40 46 Left 2
SYMATTR InstName C7
SYMATTR Value 220p
SYMBOL cap -992 480 R0
WINDOW 123 45 71 Left 2
WINDOW 0 43 6 Left 2
WINDOW 3 38 40 Left 2
SYMATTR Value2 x2
SYMATTR InstName C8
SYMATTR Value 47µ
SYMBOL res -1088 464 R0
SYMATTR InstName R7
SYMATTR Value 0.24
SYMBOL res -816 640 R90
WINDOW 0 0 56 VBottom 2
WINDOW 3 32 56 VTop 2
SYMATTR InstName R8
SYMATTR Value 60.4k
SYMBOL polcap -944 -672 R0
WINDOW 123 46 56 Left 2
WINDOW 0 41 9 Left 2
WINDOW 3 38 33 Left 2
SYMATTR Value2 x2
SYMATTR InstName C12
SYMATTR Value 100µ
SYMATTR SpiceLine Rser=10m
SYMBOL cap -1024 -608 R180
WINDOW 0 -55 55 Left 2
WINDOW 3 -56 32 Left 2
WINDOW 123 -42 10 Left 2
SYMATTR InstName C10
SYMATTR Value 22µ
SYMATTR Value2 x4
SYMBOL res -1152 -480 R0
SYMATTR InstName R3
SYMATTR Value 0.082
SYMBOL LTM4673 -272 96 R0
SYMATTR InstName U1
TEXT 288 904 Left 2 !.tran 0.3m startup
