Version 4
SHEET 1 2648 1864
WIRE 1536 1248 1376 1248
WIRE 1648 1248 1536 1248
WIRE 1776 1248 1760 1248
WIRE 1376 1264 1376 1248
WIRE 1648 1280 1648 1248
WIRE 1776 1280 1776 1248
WIRE 1536 1328 1536 1248
WIRE 1552 1328 1536 1328
WIRE 1904 1328 1872 1328
WIRE 2016 1328 1984 1328
WIRE 1376 1360 1376 1344
WIRE 1536 1424 1536 1328
WIRE 1552 1424 1536 1424
WIRE 2016 1424 1872 1424
WIRE 2128 1424 2016 1424
WIRE 2208 1424 2128 1424
WIRE 2128 1440 2128 1424
WIRE 2208 1440 2208 1424
WIRE 1472 1520 1456 1520
WIRE 1552 1520 1536 1520
WIRE 2016 1520 2016 1504
WIRE 2016 1520 1872 1520
WIRE 2016 1536 2016 1520
WIRE 2128 1536 2128 1504
WIRE 2208 1536 2208 1520
WIRE 1552 1616 1504 1616
WIRE 1904 1616 1872 1616
WIRE 1904 1632 1904 1616
WIRE 2016 1632 2016 1616
WIRE 1648 1680 1648 1664
WIRE 1776 1680 1776 1664
WIRE 1904 1728 1904 1712
FLAG 1776 1680 0
FLAG 1648 1680 0
FLAG 1376 1360 0
FLAG 2208 1536 0
FLAG 2016 1632 0
FLAG 1456 1520 0
FLAG 2208 1424 OUT
FLAG 1376 1248 IN
FLAG 2128 1536 0
FLAG 1904 1728 0
FLAG 1776 1248 SW
FLAG 1504 1616 Comp
FLAG 2016 1328 IN
SYMBOL RES 2000 1408 R0
SYMATTR InstName R1
SYMATTR Value 60.4k
SYMBOL VOLTAGE 1376 1248 R0
WINDOW 123 0 0 Left 0
WINDOW 39 0 0 Left 0
SYMATTR Value 3.3
SYMATTR InstName V1
SYMBOL res 2000 1520 R0
SYMATTR InstName R2
SYMATTR Value 60.4k
SYMBOL res 2192 1424 R0
SYMATTR InstName Rload
SYMATTR Value 0.1
SYMBOL cap 1536 1504 R90
WINDOW 0 0 32 VBottom 2
WINDOW 3 32 32 VTop 2
SYMATTR InstName C2
SYMATTR Value 4.7n
SYMBOL cap 2112 1440 R0
SYMATTR InstName C1
SYMATTR Value 100µ
SYMBOL res 2000 1312 R90
WINDOW 0 0 56 VBottom 2
WINDOW 3 32 56 VTop 2
SYMATTR InstName R3
SYMATTR Value 500K
SYMBOL res 1888 1616 R0
SYMATTR InstName R5
SYMATTR Value 274K
SYMBOL LTM4658 1712 1456 R0
SYMATTR InstName U1
TEXT 2152 1640 Left 2 !.tran .4m startup
