Version 4
SHEET 1 2248 696
WIRE 560 -320 -192 -320
WIRE 608 -320 560 -320
WIRE 608 -288 608 -320
WIRE -96 -272 -112 -272
WIRE 32 -272 -96 -272
WIRE 144 -272 32 -272
WIRE 272 -272 144 -272
WIRE 384 -272 272 -272
WIRE -112 -256 -112 -272
WIRE 144 -240 144 -272
WIRE 272 -240 272 -272
WIRE 608 -192 608 -208
WIRE 32 -176 32 -272
WIRE 64 -176 32 -176
WIRE 384 -176 384 -272
WIRE 384 -176 352 -176
WIRE -112 -160 -112 -176
WIRE -192 -80 -192 -320
WIRE -96 -80 -192 -80
WIRE 32 -80 -16 -80
WIRE 64 -80 32 -80
WIRE 384 -80 352 -80
WIRE 432 -80 384 -80
WIRE 560 -80 560 -320
WIRE 560 -80 512 -80
WIRE -112 16 -144 16
WIRE -48 16 -112 16
WIRE 64 16 -48 16
WIRE 448 16 352 16
WIRE 512 16 448 16
WIRE 544 16 512 16
WIRE -144 32 -144 16
WIRE -48 32 -48 16
WIRE 448 32 448 16
WIRE 544 32 544 16
WIRE -144 128 -144 112
WIRE -48 128 -48 96
WIRE 448 128 448 96
WIRE 544 128 544 112
WIRE -48 208 -64 208
WIRE 64 208 32 208
WIRE 384 208 352 208
WIRE 480 208 464 208
WIRE -32 400 -64 400
WIRE 64 400 32 400
WIRE 384 400 352 400
WIRE 480 400 448 400
WIRE -48 592 -64 592
WIRE 64 592 32 592
WIRE 448 592 352 592
WIRE 576 592 528 592
WIRE 208 656 208 640
FLAG -112 -160 0
FLAG 208 656 0
FLAG 448 128 0
FLAG 544 128 0
FLAG -144 128 0
FLAG -48 128 0
FLAG -64 208 0
FLAG 480 208 0
FLAG 480 400 0
FLAG -64 400 0
FLAG -64 592 0
FLAG -96 -272 vIN
FLAG -112 16 vOUT1
FLAG 512 16 vOUT2
FLAG 576 592 0
FLAG 608 -192 0
FLAG 32 -80 PG1
FLAG 384 -80 PG2
SYMBOL voltage -112 -272 R0
SYMATTR InstName V1
SYMATTR Value 12
SYMBOL cap 432 32 R0
SYMATTR InstName C1
SYMATTR Value 22µ
SYMBOL cap -64 32 R0
SYMATTR InstName C2
SYMATTR Value 22µ
SYMBOL res 528 16 R0
SYMATTR InstName R1
SYMATTR Value 1.5
SYMBOL res -160 16 R0
SYMATTR InstName R2
SYMATTR Value 2
SYMBOL res 480 192 R90
WINDOW 0 0 56 VBottom 2
WINDOW 3 32 56 VTop 2
SYMATTR InstName R3
SYMATTR Value 78.7K
SYMBOL res 48 192 R90
WINDOW 0 0 56 VBottom 2
WINDOW 3 32 56 VTop 2
SYMATTR InstName R4
SYMATTR Value 47.5K
SYMBOL cap 448 384 R90
WINDOW 0 0 32 VBottom 2
WINDOW 3 32 32 VTop 2
SYMATTR InstName C3
SYMATTR Value 1n
SYMBOL cap -32 384 M90
WINDOW 0 0 32 VBottom 2
WINDOW 3 32 32 VTop 2
SYMATTR InstName C4
SYMATTR Value 1n
SYMBOL res 48 576 R90
WINDOW 0 0 56 VBottom 2
WINDOW 3 32 56 VTop 2
SYMATTR InstName R5
SYMATTR Value 35.7K
SYMBOL voltage 432 592 R270
WINDOW 0 32 56 VTop 2
WINDOW 3 -32 56 VBottom 2
WINDOW 123 0 0 Left 0
WINDOW 39 0 0 Left 0
SYMATTR InstName Vbias
SYMATTR Value PWL(0 2.5 1m 5)
SYMBOL voltage 608 -304 R0
SYMATTR InstName V2
SYMATTR Value 5
SYMBOL res 0 -96 R90
WINDOW 0 0 56 VBottom 2
WINDOW 3 32 56 VTop 2
SYMATTR InstName R6
SYMATTR Value 100k
SYMBOL res 528 -96 R90
WINDOW 0 0 56 VBottom 2
WINDOW 3 32 56 VTop 2
SYMATTR InstName R7
SYMATTR Value 100k
SYMBOL LTM8024 208 208 R0
SYMATTR InstName U1
TEXT 264 680 Left 2 !.tran 1m startup
