Version 4
SHEET 1 2248 696
WIRE 560 -320 -192 -320
WIRE 608 -320 560 -320
WIRE 608 -288 608 -320
WIRE -96 -272 -112 -272
WIRE 32 -272 -96 -272
WIRE 144 -272 32 -272
WIRE 272 -272 144 -272
WIRE 384 -272 272 -272
WIRE -112 -256 -112 -272
WIRE 144 -240 144 -272
WIRE 272 -240 272 -272
WIRE 608 -192 608 -208
WIRE 32 -176 32 -272
WIRE 64 -176 32 -176
WIRE 384 -176 384 -272
WIRE 384 -176 352 -176
WIRE -112 -160 -112 -176
WIRE -192 -80 -192 -320
WIRE -96 -80 -192 -80
WIRE 32 -80 -16 -80
WIRE 64 -80 32 -80
WIRE 384 -80 352 -80
WIRE 432 -80 384 -80
WIRE 560 -80 560 -320
WIRE 560 -80 512 -80
WIRE -144 16 -176 16
WIRE -80 16 -144 16
WIRE 64 16 -80 16
WIRE 448 16 352 16
WIRE 560 16 448 16
WIRE 592 16 560 16
WIRE -176 32 -176 16
WIRE -80 32 -80 16
WIRE 448 32 448 16
WIRE 592 32 592 16
WIRE -176 128 -176 112
WIRE -80 128 -80 96
WIRE 448 128 448 96
WIRE 592 128 592 112
WIRE -48 208 -64 208
WIRE 64 208 32 208
WIRE 384 208 352 208
WIRE 480 208 464 208
WIRE -32 400 -64 400
WIRE 64 400 32 400
WIRE 384 400 352 400
WIRE 480 400 448 400
WIRE 64 496 16 496
WIRE 400 496 352 496
WIRE -48 592 -64 592
WIRE 64 592 32 592
WIRE 448 592 352 592
WIRE 576 592 528 592
WIRE 208 656 208 640
FLAG -112 -160 0
FLAG 208 656 0
FLAG 448 128 0
FLAG 592 128 0
FLAG -176 128 0
FLAG -80 128 0
FLAG -64 208 0
FLAG 480 208 0
FLAG 480 400 0
FLAG -64 400 0
FLAG -64 592 0
FLAG -96 -272 vIN
FLAG -144 16 vOUT1
FLAG 560 16 vOUT2
FLAG 576 592 0
FLAG 608 -192 0
FLAG 32 -80 PG1
FLAG 384 -80 PG2
FLAG 16 496 SYNC
FLAG 400 496 CLKOUT
SYMBOL voltage -112 -272 R0
SYMATTR InstName V1
SYMATTR Value 20
SYMBOL cap -96 32 R0
WINDOW 0 44 3 Left 2
WINDOW 3 45 26 Left 2
WINDOW 39 45 46 Left 2
WINDOW 123 44 66 Left 2
SYMATTR InstName C2
SYMATTR Value 47µ
SYMATTR SpiceLine Rser=20m
SYMATTR Value2 X2
SYMBOL res -192 16 R0
SYMATTR InstName R2
SYMATTR Value 5
SYMBOL res 480 192 R90
WINDOW 0 0 56 VBottom 2
WINDOW 3 32 56 VTop 2
SYMATTR InstName R3
SYMATTR Value 316K
SYMBOL res 48 192 R90
WINDOW 0 0 56 VBottom 2
WINDOW 3 32 56 VTop 2
SYMATTR InstName R4
SYMATTR Value 316K
SYMBOL cap 448 384 R90
WINDOW 0 0 32 VBottom 2
WINDOW 3 32 32 VTop 2
SYMATTR InstName C3
SYMATTR Value 1n
SYMBOL cap -32 384 M90
WINDOW 0 0 32 VBottom 2
WINDOW 3 32 32 VTop 2
SYMATTR InstName C4
SYMATTR Value 1n
SYMBOL res 48 576 R90
WINDOW 0 0 56 VBottom 2
WINDOW 3 32 56 VTop 2
SYMATTR InstName R5
SYMATTR Value 140K
SYMBOL voltage 432 592 R270
WINDOW 0 32 56 VTop 2
WINDOW 3 -32 56 VBottom 2
WINDOW 123 0 0 Left 0
WINDOW 39 0 0 Left 0
SYMATTR InstName Vbias
SYMATTR Value PWL(0 2.5 1m 5)
SYMBOL voltage 608 -304 R0
SYMATTR InstName V2
SYMATTR Value 5
SYMBOL res 0 -96 R90
WINDOW 0 0 56 VBottom 2
WINDOW 3 32 56 VTop 2
SYMATTR InstName R6
SYMATTR Value 100k
SYMBOL res 528 -96 R90
WINDOW 0 0 56 VBottom 2
WINDOW 3 32 56 VTop 2
SYMATTR InstName R7
SYMATTR Value 100k
SYMBOL cap 432 32 R0
WINDOW 0 44 3 Left 2
WINDOW 3 45 26 Left 2
WINDOW 39 45 46 Left 2
WINDOW 123 44 66 Left 2
SYMATTR InstName C1
SYMATTR Value 47µ
SYMATTR SpiceLine Rser=20m
SYMATTR Value2 X2
SYMBOL res 576 16 R0
SYMATTR InstName R1
SYMATTR Value 5
SYMBOL LTM8024 208 208 R0
SYMATTR InstName U2
TEXT 264 680 Left 2 !.tran 1m
