Version 4
SHEET 1 1800 680
WIRE -144 -416 -416 -416
WIRE -528 -352 -624 -352
WIRE -304 -352 -528 -352
WIRE -272 -352 -304 -352
WIRE -144 -352 -144 -416
WIRE -144 -352 -176 -352
WIRE -96 -352 -144 -352
WIRE -48 -352 -96 -352
WIRE -16 -352 -48 -352
WIRE 336 -352 272 -352
WIRE 496 -352 336 -352
WIRE 608 -352 496 -352
WIRE 768 -352 656 -352
WIRE -624 -336 -624 -352
WIRE -96 -336 -96 -352
WIRE 496 -336 496 -352
WIRE 608 -336 608 -352
WIRE 768 -336 768 -352
WIRE 336 -320 336 -352
WIRE 656 -320 656 -352
WIRE -96 -256 -96 -272
WIRE -624 -240 -624 -256
WIRE -416 -240 -416 -416
WIRE 496 -240 496 -272
WIRE 608 -240 608 -256
WIRE 768 -240 768 -256
WIRE -256 -224 -256 -304
WIRE -16 -224 -256 -224
WIRE 336 -224 336 -240
WIRE 336 -224 272 -224
WIRE 336 -208 336 -224
WIRE -304 -192 -304 -352
WIRE -16 -192 -304 -192
WIRE -416 -144 -416 -160
WIRE -16 -144 -416 -144
WIRE -416 -128 -416 -144
WIRE -528 -96 -528 -352
WIRE 336 -96 336 -128
WIRE -416 -32 -416 -48
WIRE -528 0 -528 -16
WIRE -16 0 -528 0
WIRE 384 0 272 0
WIRE 576 0 464 0
WIRE -528 16 -528 0
WIRE 576 32 576 0
WIRE -16 48 -304 48
WIRE -304 64 -304 48
WIRE 336 80 272 80
WIRE -16 96 -80 96
WIRE 336 96 336 80
WIRE -528 128 -528 96
WIRE -80 128 -80 96
WIRE 576 128 576 112
WIRE -304 160 -304 144
WIRE -16 192 -80 192
WIRE 336 192 336 176
WIRE 336 192 272 192
WIRE -80 224 -80 192
WIRE 336 224 336 192
FLAG -624 -240 0
FLAG 496 -240 0
FLAG 608 -352 OUT
FLAG -48 -352 IN
FLAG 608 -240 0
FLAG 656 -272 0
FLAG 768 -240 0
FLAG -528 128 0
FLAG 336 224 0
FLAG 576 128 0
FLAG -304 160 0
FLAG -416 -32 0
FLAG -80 128 0
FLAG -624 -352 VSYS
FLAG 336 -96 0
FLAG -96 -256 0
FLAG -80 224 0
SYMBOL voltage -624 -352 R0
WINDOW 123 0 0 Left 2
WINDOW 39 0 0 Left 2
SYMATTR InstName V1
SYMATTR Value 48
SYMBOL cap 480 -336 R0
SYMATTR InstName C2
SYMATTR Value 150µ
SYMBOL sw 608 -240 R180
WINDOW 0 -23 102 Right 2
WINDOW 3 -26 2 Right 2
SYMATTR InstName S1
SYMATTR Value SHORT
SYMBOL voltage 768 -352 R0
WINDOW 123 0 0 Left 2
WINDOW 39 0 0 Left 2
SYMATTR InstName V3
SYMATTR Value PULSE(0 1 70m 1m 1m 100m)
SYMBOL res 480 -16 R90
WINDOW 0 0 56 VBottom 2
WINDOW 3 32 56 VTop 2
SYMATTR InstName R6
SYMATTR Value 20K
SYMBOL res -544 112 M180
WINDOW 0 36 76 Left 2
WINDOW 3 36 40 Left 2
SYMATTR InstName R4
SYMATTR Value 10K
SYMBOL res 320 80 R0
SYMATTR InstName R8
SYMATTR Value 6.26K
SYMBOL voltage 576 16 R0
WINDOW 123 0 0 Left 2
WINDOW 39 0 0 Left 2
SYMATTR InstName V2
SYMATTR Value 5
SYMBOL voltage -304 48 R0
WINDOW 123 0 0 Left 2
WINDOW 39 0 0 Left 2
SYMATTR InstName V4
SYMATTR Value 2
SYMBOL res -432 -256 R0
SYMATTR InstName R1
SYMATTR Value 2.1Meg
SYMBOL res -432 -144 R0
SYMATTR InstName R2
SYMATTR Value 100K
SYMBOL res -544 0 M180
WINDOW 0 36 76 Left 2
WINDOW 3 36 40 Left 2
SYMATTR InstName R3
SYMATTR Value 499K
SYMBOL nmos -176 -304 M270
WINDOW 0 86 96 VLeft 2
WINDOW 3 64 97 VLeft 2
WINDOW 123 -26 118 VRight 2
SYMATTR InstName M1
SYMATTR Value RSS065N06
SYMBOL res 320 -336 R0
SYMATTR InstName R5
SYMATTR Value 2.1Meg
SYMBOL res 320 -224 R0
SYMATTR InstName R7
SYMATTR Value 100K
SYMBOL cap -112 -336 R0
SYMATTR InstName C1
SYMATTR Value 0.1µ
SYMBOL MAX17526A 128 -80 R0
SYMATTR InstName U1
TEXT 480 192 Left 2 !.model SHORT SW(Ron=.1 Roff=100K Vt=.5 Vh=-.4)
TEXT 480 232 Left 2 !.tran 1 startup
