Version 4
SHEET 1 1800 680
WIRE -16 -352 -224 -352
WIRE 400 -352 272 -352
WIRE 512 -352 400 -352
WIRE 672 -352 560 -352
WIRE -224 -336 -224 -352
WIRE 400 -336 400 -352
WIRE 512 -336 512 -352
WIRE 672 -336 672 -352
WIRE 560 -320 560 -352
WIRE -224 -240 -224 -256
WIRE 400 -240 400 -272
WIRE 512 -240 512 -256
WIRE 672 -240 672 -256
WIRE -16 -160 -224 -160
WIRE 384 -160 272 -160
WIRE 576 -160 464 -160
WIRE -224 -144 -224 -160
WIRE 576 -128 576 -160
WIRE -16 -64 -128 -64
WIRE 336 -64 272 -64
WIRE -224 -48 -224 -64
WIRE -128 -48 -128 -64
WIRE 336 -32 336 -64
WIRE 576 -32 576 -48
WIRE -128 80 -128 32
FLAG -224 -240 0
FLAG 400 -240 0
FLAG 512 -352 OUT
FLAG -224 -352 IN
FLAG 512 -240 0
FLAG 560 -272 0
FLAG 672 -240 0
FLAG -128 80 0
FLAG 576 -32 0
FLAG -224 -48 0
FLAG 336 -32 0
SYMBOL voltage -224 -352 R0
WINDOW 123 0 0 Left 2
WINDOW 39 0 0 Left 2
SYMATTR InstName V1
SYMATTR Value 5
SYMBOL cap 384 -336 R0
SYMATTR InstName C2
SYMATTR Value 150µ
SYMBOL sw 512 -240 R180
WINDOW 0 -23 102 Right 2
WINDOW 3 -26 2 Right 2
SYMATTR InstName S1
SYMATTR Value SHORT
SYMBOL voltage 672 -352 R0
WINDOW 123 0 0 Left 2
WINDOW 39 0 0 Left 2
SYMATTR InstName V3
SYMATTR Value PULSE(0 1 10m 1m 1m 30m)
SYMBOL res 480 -176 R90
WINDOW 0 0 56 VBottom 2
WINDOW 3 32 56 VTop 2
SYMATTR InstName R6
SYMATTR Value 20K
SYMBOL res -144 -64 R0
SYMATTR InstName R8
SYMATTR Value 681
SYMBOL voltage 576 -144 R0
WINDOW 123 0 0 Left 2
WINDOW 39 0 0 Left 2
SYMATTR InstName V2
SYMATTR Value 5
SYMBOL voltage -224 -160 R0
WINDOW 123 0 0 Left 2
WINDOW 39 0 0 Left 2
SYMATTR InstName V4
SYMATTR Value 0
SYMBOL MAX20316 128 -208 R0
SYMATTR InstName U1
TEXT 480 144 Left 2 !.model SHORT SW(Ron=0.05 Roff=1K Vt=.5 Vh=-.4)
TEXT 480 184 Left 2 !.tran 50m startup
