Version 4
SHEET 1 1048 692
WIRE -160 176 -160 128
WIRE -176 192 -208 192
WIRE -96 192 -128 192
WIRE -16 192 -48 192
WIRE 48 192 -16 192
WIRE 448 224 400 224
WIRE 656 224 544 224
WIRE 720 224 656 224
WIRE 816 224 720 224
WIRE 880 224 864 224
WIRE 928 224 880 224
WIRE 720 240 720 224
WIRE 880 240 880 224
WIRE 448 256 432 256
WIRE 656 256 544 256
WIRE 432 272 432 256
WIRE 656 320 656 256
WIRE -16 336 -16 192
WIRE 720 352 720 320
WIRE 880 352 880 320
WIRE -16 448 -16 384
WIRE 48 448 -16 448
WIRE 448 480 400 480
WIRE 656 480 544 480
WIRE 720 480 656 480
WIRE 816 480 720 480
WIRE 880 480 864 480
WIRE 928 480 880 480
WIRE 720 496 720 480
WIRE 880 496 880 480
WIRE 448 512 432 512
WIRE 656 512 544 512
WIRE 432 528 432 512
WIRE 656 576 656 512
WIRE 720 608 720 576
WIRE 880 608 880 576
FLAG -160 128 VDD
IOPIN -160 128 In
FLAG 224 144 VDD
FLAG 224 400 VDD
FLAG 0 352 VDD
FLAG 656 320 0
FLAG 432 272 0
FLAG 720 352 0
FLAG 656 576 0
FLAG 432 528 0
FLAG 720 608 0
FLAG -208 192 In
IOPIN -208 192 In
FLAG 832 208 VDD
FLAG 928 224 Out
IOPIN 928 224 Out
FLAG 832 464 VDD
FLAG 928 480 Outd
IOPIN 928 480 Out
FLAG 48 480 VDD
FLAG 48 224 VDD
FLAG 48 256 fbb
FLAG 48 512 fbt
FLAG -80 176 VDD
FLAG 656 224 fbt
FLAG 656 480 fbb
FLAG 880 352 0
FLAG 880 608 0
SYMBOL inverter -176 192 R0
SYMATTR InstName X1
SYMBOL Ideal_NAND_3 0 240 R0
SYMATTR InstName X2
SYMBOL Ideal_NAND_3 0 496 R0
SYMATTR InstName X3
SYMBOL inverter -16 336 R90
SYMATTR InstName X4
SYMBOL tline 496 240 R0
SYMATTR InstName T1
SYMATTR Value Td=250p Z0=50
SYMBOL res 704 224 R0
SYMATTR InstName R1
SYMATTR Value 50
SYMBOL tline 496 496 R0
SYMATTR InstName T2
SYMATTR Value Td=250p Z0=50
SYMBOL res 704 480 R0
SYMATTR InstName R2
SYMATTR Value 50
SYMBOL inverter 816 224 R0
SYMATTR InstName X5
SYMBOL inverter 816 480 R0
SYMATTR InstName X6
SYMBOL inverter -96 192 R0
SYMATTR InstName X7
SYMBOL res 864 224 R0
SYMATTR InstName R3
SYMATTR Value 100MEG
SYMBOL res 864 480 R0
SYMATTR InstName R4
SYMATTR Value 100MEG
