Version 4
SHEET 1 936 680
WIRE -64 80 -80 80
WIRE 32 80 16 80
WIRE -160 128 -240 128
WIRE -112 128 -160 128
WIRE -80 128 -80 80
WIRE -64 128 -80 128
WIRE -48 128 -64 128
WIRE 32 128 32 80
WIRE 32 128 16 128
WIRE 16 144 16 128
WIRE -240 160 -240 128
WIRE -112 176 -112 128
WIRE -48 176 -48 128
WIRE 16 176 16 144
WIRE 80 176 80 160
WIRE 208 176 208 112
WIRE 368 192 336 192
WIRE 384 192 368 192
WIRE 368 240 336 240
WIRE 384 240 368 240
WIRE 352 288 336 288
WIRE 368 288 352 288
WIRE 368 304 368 288
WIRE -112 336 -112 320
WIRE -112 336 -160 336
WIRE 96 336 96 320
WIRE -240 352 -240 240
WIRE -112 352 -112 336
WIRE -16 352 -16 320
WIRE -160 368 -160 336
WIRE 96 368 96 336
WIRE 160 384 160 320
WIRE 176 384 160 384
WIRE 208 384 176 384
WIRE 208 400 208 384
WIRE 368 400 368 384
WIRE -112 464 -112 432
WIRE 96 480 96 448
FLAG -112 464 0
FLAG -240 352 0
FLAG 368 400 0
FLAG 96 480 0
FLAG 208 480 0
FLAG 80 160 ref
FLAG -160 128 vcc
FLAG 176 384 gain
FLAG 96 336 en
FLAG 352 288 rclmp
FLAG 368 240 vol
FLAG 368 192 voh
FLAG -64 128 vip
FLAG 16 144 vin
FLAG -160 432 0
FLAG -16 352 0
FLAG 208 112 0
SYMBOL VGA 16 240 R0
SYMATTR InstName U1
SYMBOL voltage -240 144 R0
WINDOW 123 0 0 Left 0
WINDOW 39 0 0 Left 0
SYMATTR InstName V1
SYMATTR Value 5
SYMBOL res 352 288 R0
SYMATTR InstName R1
SYMATTR Value 2k7
SYMBOL voltage 96 352 R0
WINDOW 3 -193 104 Left 0
WINDOW 123 0 0 Left 0
WINDOW 39 0 0 Left 0
SYMATTR InstName V2
SYMATTR Value PWL(0 0 100u 5)
SYMBOL voltage 208 384 R0
WINDOW 123 0 0 Left 0
WINDOW 39 0 0 Left 0
SYMATTR InstName V3
SYMATTR Value PWL(0 0 200u 0 1m 1)
SYMBOL voltage -80 80 R270
WINDOW 0 32 56 VTop 0
WINDOW 3 41 184 VBottom 0
WINDOW 123 0 0 Left 0
WINDOW 39 0 0 Left 0
SYMATTR InstName V4
SYMATTR Value SINE(0 10m 100k)
SYMBOL res -128 336 R0
SYMATTR InstName R2
SYMATTR Value 1
SYMBOL cap -176 368 R0
SYMATTR InstName C1
SYMATTR Value 1n
TEXT -274 504 Left 0 !.tran 1m
